# MODFLOW2000 Well Package
PARAMETER    9  1725
        1725        50   AUX IFACE
SPECIFY    0.05    501
MFR5   Q    1.9900  117 
         1       332       135         1         0
         1       333       135         1         0
         1       334       136         1         0
         1       335       136         1         0
         1       336       137         1         0
         1       337       137         1         0
         1       338       138         1         0
         1       339       138         1         0
         1       340       139         1         0
         1       341       140         1         0
         1       342       141         1         0
         1       343       141         1         0
         1       344       141         1         0
         1       345       141         1         0
         1       346       141         1         0
         1       347       141         1         0
         1       348       141         1         0
         1       349       141         1         0
         1       350       141         1         0
         1       351       141         1         0
         1       352       141         1         0
         1       353       141         1         0
         1       354       141         1         0
         1       355       141         1         0
         1       356       141         1         0
         1       357       141         1         0
         1       358       142         1         0
         1       359       143         1         0
         1       360       143         1         0
         1       361       143         1         0
         1       362       143         1         0
         1       363       143         1         0
         1       364       143         1         0
         1       365       143         1         0
         1       366       143         1         0
         1       367       143         1         0
         1       368       143         1         0
         1       369       143         1         0
         1       370       143         1         0
         1       371       143         1         0
         1       372       143         1         0
         1       373       143         1         0
         1       374       143         1         0
         1       375       143         1         0
         1       376       143         1         0
         1       377       143         1         0
         1       378       143         1         0
         1       379       143         1         0
         1       380       143         1         0
         1       381       143         1         0
         1       382       144         1         0
         1       383       144         1         0
         1       384       144         1         0
         1       385       144         1         0
         1       386       145         1         0
         1       387       145         1         0
         1       388       145         1         0
         1       389       145         1         0
         1       390       146         1         0
         1       391       146         1         0
         1       392       146         1         0
         1       393       147         1         0
         1       394       147         1         0
         1       395       148         1         0
         1       396       148         1         0
         1       397       149         1         0
         1       398       150         1         0
         1       399       150         1         0
         1       400       151         1         0
         1       401       152         1         0
         1       402       152         1         0
         1       403       153         1         0
         1       404       154         1         0
         1       404       155         1         0
         1       404       156         1         0
         1       405       157         1         0
         1       406       157         1         0
         1       407       157         1         0
         1       408       157         1         0
         1       408       158         1         0
         1       409       159         1         0
         1       410       159         1         0
         1       410       160         1         0
         1       411       161         1         0
         1       412       161         1         0
         1       413       161         1         0
         1       414       161         1         0
         1       415       161         1         0
         1       416       162         1         0
         1       417       162         1         0
         1       418       163         1         0
         1       419       163         1         0
         1       420       163         1         0
         1       421       163         1         0
         1       422       162         1         0
         1       423       163         1         0
         1       423       164         1         0
         1       424       165         1         0
         1       425       166         1         0
         1       426       167         1         0
         1       427       168         1         0
         1       427       174         1         0
         1       427       175         1         0
         1       427       176         1         0
         1       428       168         1         0
         1       428       169         1         0
         1       428       172         1         0
         1       428       173         1         0
         1       428       177         1         0
         1       428       178         1         0
         1       428       179         1         0
         1       428       180         1         0
         1       428       181         1         0
         1       428       182         1         0
         1       428       183         1         0
         1       429       170         1         0
         1       429       171         1         0
MFR6   Q   51.4543  105
         1       307       114         1         0
         1       308       114         1         0
         1       309       114         1         0
         1       310       114         1         0
         1       311       114         1         0
         1       312       108         1         0
         1       312       109         1         0
         1       312       110         1         0
         1       312       111         1         0
         1       312       112         1         0
         1       312       113         1         0
         1       313       107         1         0
         1       313       108         1         0
         1       313       109         1         0
         1       313       110         1         0
         1       314       111         1         0
         1       315       112         1         0
         1       315       122         1         0
         1       315       123         1         0
         1       315       124         1         0
         1       315       125         1         0
         1       315       126         1         0
         1       315       127         1         0
         1       316       112         1         0
         1       316       118         1         0
         1       316       119         1         0
         1       316       120         1         0
         1       316       121         1         0
         1       316       128         1         0
         1       317       112         1         0
         1       317       116         1         0
         1       317       117         1         0
         1       317       118         1         0
         1       317       129         1         0
         1       318       112         1         0
         1       318       115         1         0
         1       318       130         1         0
         1       319       111         1         0
         1       319       115         1         0
         1       319       130         1         0
         1       320       111         1         0
         1       320       115         1         0
         1       320       131         1         0
         1       321       111         1         0
         1       321       115         1         0
         1       321       131         1         0
         1       322       110         1         0
         1       322       115         1         0
         1       322       130         1         0
         1       323       110         1         0
         1       323       115         1         0
         1       323       128         1         0
         1       323       129         1         0
         1       324       109         1         0
         1       324       115         1         0
         1       324       130         1         0
         1       325       109         1         0
         1       325       115         1         0
         1       325       130         1         0
         1       326       109         1         0
         1       326       113         1         0
         1       326       114         1         0
         1       326       115         1         0
         1       326       130         1         0
         1       327       108         1         0
         1       327       112         1         0
         1       327       129         1         0
         1       327       130         1         0
         1       328       108         1         0
         1       328       112         1         0
         1       328       128         1         0
         1       328       129         1         0
         1       328       131         1         0
         1       329       108         1         0
         1       329       113         1         0
         1       329       128         1         0
         1       329       129         1         0
         1       329       131         1         0
         1       329       132         1         0
         1       329       133         1         0
         1       330       107         1         0
         1       330       114         1         0
         1       330       128         1         0
         1       330       134         1         0
         1       331       107         1         0
         1       331       113         1         0
         1       331       134         1         0
         1       332       107         1         0
         1       332       112         1         0
         1       333       107         1         0
         1       333       112         1         0
         1       334       107         1         0
         1       334       111         1         0
         1       335       106         1         0
         1       335       111         1         0
         1       336       106         1         0
         1       336       111         1         0
         1       337       107         1         0
         1       337       110         1         0
         1       338       107         1         0
         1       338       110         1         0
         1       339       108         1         0
         1       339       110         1         0
         1       340       109         1         0
         1       341       109         1         0
MFR7   Q   47.4698  172
         1       260       105         1         0
         1       260       106         1         0
         1       261       103         1         0
         1       261       104         1         0
         1       261       105         1         0
         1       262        86         1         0
         1       262        87         1         0
         1       262        88         1         0
         1       262       100         1         0
         1       262       101         1         0
         1       262       102         1         0
         1       263        85         1         0
         1       263        86         1         0
         1       263        88         1         0
         1       263        97         1         0
         1       263        98         1         0
         1       263        99         1         0
         1       264        85         1         0
         1       264        88         1         0
         1       264        95         1         0
         1       264        96         1         0
         1       264        97         1         0
         1       265        84         1         0
         1       265        88         1         0
         1       265        95         1         0
         1       266        83         1         0
         1       266        88         1         0
         1       266        94         1         0
         1       267        83         1         0
         1       267        87         1         0
         1       267        92         1         0
         1       267        93         1         0
         1       268        86         1         0
         1       268        91         1         0
         1       269        85         1         0
         1       269        90         1         0
         1       270        83         1         0
         1       270        84         1         0
         1       270        89         1         0
         1       270        90         1         0
         1       271        82         1         0
         1       271        89         1         0
         1       272        81         1         0
         1       272        88         1         0
         1       273        80         1         0
         1       273        87         1         0
         1       273        88         1         0
         1       274        80         1         0
         1       274        87         1         0
         1       275        79         1         0
         1       275        87         1         0
         1       276        79         1         0
         1       276        86         1         0
         1       276        87         1         0
         1       277        79         1         0
         1       277        86         1         0
         1       278        79         1         0
         1       278        86         1         0
         1       279        78         1         0
         1       279        85         1         0
         1       280        78         1         0
         1       280        81         1         0
         1       280        82         1         0
         1       280        83         1         0
         1       280        84         1         0
         1       281        78         1         0
         1       281        79         1         0
         1       281        80         1         0
         1       261       107         1         0
         1       261       108         1         0
         1       262       108         1         0
         1       263       108         1         0
         1       264       107         1         0
         1       265       107         1         0
         1       266       107         1         0
         1       267       107         1         0
         1       268       107         1         0
         1       269       107         1         0
         1       270       108         1         0
         1       271       108         1         0
         1       272       102         1         0
         1       272       103         1         0
         1       272       108         1         0
         1       273       101         1         0
         1       273       104         1         0
         1       273       105         1         0
         1       273       106         1         0
         1       273       107         1         0
         1       273       108         1         0
         1       274       101         1         0
         1       275       100         1         0
         1       275       104         1         0
         1       275       105         1         0
         1       275       106         1         0
         1       275       107         1         0
         1       275       108         1         0
         1       275       109         1         0
         1       276       100         1         0
         1       276       101         1         0
         1       276       102         1         0
         1       276       103         1         0
         1       276       104         1         0
         1       276       110         1         0
         1       277       110         1         0
         1       278       110         1         0
         1       279       110         1         0
         1       280       109         1         0
         1       281       108         1         0
         1       282       108         1         0
         1       283       106         1         0
         1       283       107         1         0
         1       283       108         1         0
         1       284       106         1         0
         1       285       106         1         0
         1       286       107         1         0
         1       287       107         1         0
         1       287       108         1         0
         1       287       109         1         0
         1       287       110         1         0
         1       288       111         1         0
         1       288       112         1         0
         1       289       113         1         0
         1       290       113         1         0
         1       291       113         1         0
         1       292       114         1         0
         1       293       114         1         0
         1       294       114         1         0
         1       295       115         1         0
         1       296       115         1         0
         1       297        97         1         0
         1       297        98         1         0
         1       297        99         1         0
         1       297       100         1         0
         1       297       115         1         0
         1       298        97         1         0
         1       298       101         1         0
         1       298       115         1         0
         1       299        98         1         0
         1       299       102         1         0
         1       299       103         1         0
         1       299       115         1         0
         1       300        98         1         0
         1       300       103         1         0
         1       300       104         1         0
         1       300       115         1         0
         1       301        99         1         0
         1       301       100         1         0
         1       301       104         1         0
         1       301       114         1         0
         1       302       101         1         0
         1       302       102         1         0
         1       302       105         1         0
         1       302       113         1         0
         1       303       103         1         0
         1       303       104         1         0
         1       303       105         1         0
         1       303       106         1         0
         1       303       107         1         0
         1       303       112         1         0
         1       303       113         1         0
         1       304       106         1         0
         1       304       107         1         0
         1       304       108         1         0
         1       304       109         1         0
         1       304       110         1         0
         1       304       111         1         0
         1       304       112         1         0
         1       304       113         1         0
         1       304       114         1         0
         1       305       114         1         0
         1       306       114         1         0
         1       307       114         1         0
MFR8   Q  137.5973  149
         1       169        58         1         0
         1       169        59         1         0
         1       169        60         1         0
         1       169        61         1         0
         1       170        56         1         0
         1       170        57         1         0
         1       171        54         1         0
         1       171        55         1         0
         1       172        53         1         0
         1       173        51         1         0
         1       173        52         1         0
         1       174        50         1         0
         1       175        49         1         0
         1       176        47         1         0
         1       176        48         1         0
         1       177        47         1         0
         1       178        35         1         0
         1       178        36         1         0
         1       178        37         1         0
         1       178        38         1         0
         1       178        39         1         0
         1       178        40         1         0
         1       178        41         1         0
         1       178        42         1         0
         1       178        43         1         0
         1       178        44         1         0
         1       178        47         1         0
         1       179        44         1         0
         1       179        45         1         0
         1       179        46         1         0
         1       179        47         1         0
         1       182        60         1         0
         1       183        60         1         0
         1       184        60         1         0
         1       185        61         1         0
         1       186        62         1         0
         1       186        63         1         0
         1       187        64         1         0
         1       188        65         1         0
         1       189        65         1         0
         1       190        66         1         0
         1       191        65         1         0
         1       192        65         1         0
         1       193        65         1         0
         1       194        65         1         0
         1       195        65         1         0
         1       196        65         1         0
         1       197        65         1         0
         1       198        64         1         0
         1       199        64         1         0
         1       200        61         1         0
         1       200        62         1         0
         1       200        63         1         0
         1       201        58         1         0
         1       201        59         1         0
         1       201        60         1         0
         1       202        59         1         0
         1       203        60         1         0
         1       204        60         1         0
         1       205        61         1         0
         1       205        62         1         0
         1       206        63         1         0
         1       207        64         1         0
         1       207        65         1         0
         1       208        66         1         0
         1       208        67         1         0
         1       208        68         1         0
         1       208        69         1         0
         1       208        70         1         0
         1       208        71         1         0
         1       208        72         1         0
         1       208        73         1         0
         1       208        74         1         0
         1       209        75         1         0
         1       210        75         1         0
         1       211        75         1         0
         1       212        75         1         0
         1       213        74         1         0
         1       214        73         1         0
         1       215        73         1         0
         1       216        73         1         0
         1       217        73         1         0
         1       218        74         1         0
         1       219        74         1         0
         1       220        74         1         0
         1       221        74         1         0
         1       222        75         1         0
         1       223        75         1         0
         1       223        77         1         0
         1       223        78         1         0
         1       223        79         1         0
         1       224        75         1         0
         1       224        76         1         0
         1       224        80         1         0
         1       225        80         1         0
         1       226        81         1         0
         1       227        82         1         0
         1       228        82         1         0
         1       229        83         1         0
         1       230        83         1         0
         1       231        83         1         0
         1       168        62         1         0
         1       169        63         1         0
         1       170        63         1         0
         1       171        63         1         0
         1       172        63         1         0
         1       173        63         1         0
         1       174        63         1         0
         1       175        63         1         0
         1       176        63         1         0
         1       177        63         1         0
         1       178        62         1         0
         1       179        62         1         0
         1       180        61         1         0
         1       181        60         1         0
         1       232        83         1         0
         1       233        82         1         0
         1       234        82         1         0
         1       235        82         1         0
         1       236        82         1         0
         1       237        82         1         0
         1       238        82         1         0
         1       239        82         1         0
         1       240        82         1         0
         1       241        82         1         0
         1       242        83         1         0
         1       243        83         1         0
         1       244        83         1         0
         1       245        83         1         0
         1       246        82         1         0
         1       247        82         1         0
         1       248        82         1         0
         1       249        82         1         0
         1       250        83         1         0
         1       251        83         1         0
         1       252        82         1         0
         1       253        82         1         0
         1       254        82         1         0
         1       255        83         1         0
         1       256        84         1         0
         1       257        84         1         0
         1       258        84         1         0
         1       259        83         1         0
         1       260        83         1         0
         1       261        82         1         0
         1       262        82         1         0
         1       263        82         1         0
         1       264        82         1         0
         1       265        83         1         0
MFR9   Q    5.2094  400
         1        73        30         1         0
         1        78        82         1         0
         1        79        81         1         0
         1        80        80         1         0
         1        81        80         1         0
         1        82        80         1         0
         1        83        80         1         0
         1        84        79         1         0
         1        85        79         1         0
         1        85        89         1         0
         1        86        78         1         0
         1        86        89         1         0
         1        87        78         1         0
         1        87        90         1         0
         1        88        78         1         0
         1        88        91         1         0
         1        89        77         1         0
         1        89        92         1         0
         1        89        93         1         0
         1        90        76         1         0
         1        90        92         1         0
         1        91        75         1         0
         1        91        91         1         0
         1        92        76         1         0
         1        92        91         1         0
         1        93        76         1         0
         1        93        90         1         0
         1        94        76         1         0
         1        94        89         1         0
         1        95        76         1         0
         1        95        89         1         0
         1        96        75         1         0
         1        96        89         1         0
         1        97        75         1         0
         1        97        88         1         0
         1        98        74         1         0
         1        98        88         1         0
         1        99        74         1         0
         1        99        87         1         0
         1        99        88         1         0