# MODFLOW-2005 PVAL file for project SVIHMv3_002_main
45
kx1   4.000000000000000E+001
kx2   4.000000000000000E+000
kx3   5.600000000000000E+001
kx4   2.400000000000000E+001
kx5   1.000000000000000E+001
kx6   3.000000000000000E+001
kx7   1.000000000000000E+003
kx8   3.000000000000000E+001
kx9   6.000000000000000E+001
kvar1     1.000000000000000E+002
kvar2     1.000000000000000E+002
kvar3     1.000000000000000E+002
kvar4     1.000000000000000E+002
kvar5     1.000000000000000E+002
kvar6     1.000000000000000E+002
kvar7     1.000000000000000E+000
kvar8     1.000000000000000E+002
kvar9     1.000000000000000E+002
sy1   0.900000000000000E-001
sy2   1.500000000000000E-001
sy3   0.300000000000000E-001
sy4   1.000000000000000E-001
sy5   1.500000000000000E-001
sy6   1.500000000000000E-001
sy7   3.000000000000000E-001
sy8   1.500000000000000E-001
sy9   1.500000000000000E-001
ss1   1.000000000000000E-005
ss2   1.000000000000000E-005
ss3   1.000000000000000E-005
ss4   1.000000000000000E-005
ss5   1.000000000000000E-005
ss6   1.000000000000000E-005
ss7   1.000000000000000E-005
ss8   1.000000000000000E-005
ss9   1.000000000000000E-005
wel5   2.000000000000000E+000
wel6   6.000000000000000E+001
wel7   7.000000000000000E+001
wel8   1.500000000000000E+002
wel9   5.000000000000000E+000
wel10   2.000000000000000E+001
wel11   9.000000000000000E+001
wel20   9.000000000000000E+001
wel21   3.000000000000000E+002

