# HOB package for MODFLOW-NWT generated by Flopy 3.3.6
     23225        40         2       500      -999
         1
28P001M                 2         67         90        -43                  0.0     0.3306     0.1902     0.0000   # DATASET 3 - Observation 1
         1                                                                                                         # DATASET 5 - Observation 1
28P001M.1              37                 17.0   818.7107                                                          # DATASET 6 - Observation 1.1
28P001M.2              43                  1.0   821.8197                                                          # DATASET 6 - Observation 1.2
28P001M.3              49                 27.0   818.1926                                                          # DATASET 6 - Observation 1.3
28P001M.4              54                 31.0   826.6660                                                          # DATASET 6 - Observation 1.4
28P001M.5              61                 18.0   820.1738                                                          # DATASET 6 - Observation 1.5
28P001M.6              66                 29.0   826.3612                                                          # DATASET 6 - Observation 1.6
28P001M.7              73                 24.0   819.6861                                                          # DATASET 6 - Observation 1.7
28P001M.8              78                 13.0   825.8126                                                          # DATASET 6 - Observation 1.8
28P001M.9              85                 23.0   819.1375                                                          # DATASET 6 - Observation 1.9
28P001M.10             91                  1.0   826.6355                                                          # DATASET 6 - Observation 1.10
28P001M.11             97                 27.0   820.2347                                                          # DATASET 6 - Observation 1.11
28P001M.12            102                 16.0   826.7879                                                          # DATASET 6 - Observation 1.12
28P001M.13            109                 26.0   819.4117                                                          # DATASET 6 - Observation 1.13
28P001M.14            114                 24.0   826.1174                                                          # DATASET 6 - Observation 1.14
28P001M.15            121                 10.0   819.4117                                                          # DATASET 6 - Observation 1.15
28P001M.16            126                 29.0   818.8326                                                          # DATASET 6 - Observation 1.16
28P001M.17            133                 29.0   817.2781                                                          # DATASET 6 - Observation 1.17
28P001M.18            138                 27.0   825.0201                                                          # DATASET 6 - Observation 1.18
28P001M.19            142                 16.0   821.6063                                                          # DATASET 6 - Observation 1.19
28P001M.20            143                 14.0   820.7224                                                          # DATASET 6 - Observation 1.20
28P001M.21            144                 19.0   819.5032                                                          # DATASET 6 - Observation 1.21
28P001M.22            145                  9.0   818.3450                                                          # DATASET 6 - Observation 1.22
28P001M.23            150                 24.0   825.8430                                                          # DATASET 6 - Observation 1.23
28P001M.24            152                  7.0   826.0564                                                          # DATASET 6 - Observation 1.24
28P001M.25            153                  6.0   824.6238                                                          # DATASET 6 - Observation 1.25
28P001M.26            154                  2.0   823.4656                                                          # DATASET 6 - Observation 1.26
28P001M.27            155                 12.0   821.8502                                                          # DATASET 6 - Observation 1.27
28P001M.28            156                  5.0   820.7834                                                          # DATASET 6 - Observation 1.28
28P001M.29            157                  6.0   819.8385                                                          # DATASET 6 - Observation 1.29
28P001M.30            158                  5.0   819.3203                                                          # DATASET 6 - Observation 1.30
28P001M.31            162                 29.0   826.3002                                                          # DATASET 6 - Observation 1.31
28P001M.32            166                 21.0   821.0881                                                          # DATASET 6 - Observation 1.32
28P001M.33            167                 11.0   821.1187                                                          # DATASET 6 - Observation 1.33
28P001M.34            169                 28.0   818.9850                                                          # DATASET 6 - Observation 1.34
28P001M.35            175                  6.0   823.8618                                                          # DATASET 6 - Observation 1.35
28P001M.36            181                 17.0   819.5337                                                          # DATASET 6 - Observation 1.36
28P001M.37            187                 19.0   826.2698                                                          # DATASET 6 - Observation 1.37
28P001M.38            193                 17.0   819.8690                                                          # DATASET 6 - Observation 1.38
28P001M.39            198                 26.0   826.5136                                                          # DATASET 6 - Observation 1.39
28P001M.40            205                 24.0   818.8022                                                          # DATASET 6 - Observation 1.40
28P001M.41            211                  3.0   826.5441                                                          # DATASET 6 - Observation 1.41
28P001M.42            217                 28.0   819.1527                                                          # DATASET 6 - Observation 1.42
28P001M.43            223                  6.0   820.7377                                                          # DATASET 6 - Observation 1.43
A2                      1        239        139       -117                  0.0     0.2575     0.3216     0.0000   # DATASET 3 - Observation 2
         1                                                                                                         # DATASET 5 - Observation 2
A2.1                  213                 10.0   843.9310                                                          # DATASET 6 - Observation 2.1
A2.2                  214                  9.0   843.4464                                                          # DATASET 6 - Observation 2.2
A2.3                  215                 10.0   841.9346                                                          # DATASET 6 - Observation 2.3
A2.4                  216                 10.0   841.2275                                                          # DATASET 6 - Observation 2.4
A2.5                  217                 12.0   841.0477                                                          # DATASET 6 - Observation 2.5
A2.6                  218                 11.0   841.4469                                                          # DATASET 6 - Observation 2.6
A2.7                  219                 11.0   841.2488                                                          # DATASET 6 - Observation 2.7
A2.8                  220                 12.0   841.1422                                                          # DATASET 6 - Observation 2.8
A2.9                  221                 13.0   841.2183                                                          # DATASET 6 - Observation 2.9
A2.10                 222                 14.0   841.1299                                                          # DATASET 6 - Observation 2.10
A2.11                 223                 10.0   842.4162                                                          # DATASET 6 - Observation 2.11
A2.12                 224                 10.0   842.1205                                                          # DATASET 6 - Observation 2.12
A2.13                 225                 22.0   841.9468                                                          # DATASET 6 - Observation 2.13
A2.14                 226                 14.0   841.3281                                                          # DATASET 6 - Observation 2.14
A2.15                 227                 13.0   841.0233                                                          # DATASET 6 - Observation 2.15
A2.16                 228                 14.0   840.2125                                                          # DATASET 6 - Observation 2.16
A2.17                 229                  1.0   840.5599                                                          # DATASET 6 - Observation 2.17
A2.18                 230                  9.0   840.7672                                                          # DATASET 6 - Observation 2.18
A2.19                 231                  1.0   841.6024                                                          # DATASET 6 - Observation 2.19
A2.20                 232                  7.0   842.5411                                                          # DATASET 6 - Observation 2.20
A2.21                 233                  4.0   842.4345                                                          # DATASET 6 - Observation 2.21
A2.22                 234                  5.0   842.2943                                                          # DATASET 6 - Observation 2.22
A2.23                 235                  6.0   842.3583                                                          # DATASET 6 - Observation 2.23
A2.24                 236                  6.0   842.5686                                                          # DATASET 6 - Observation 2.24
A2.25                 237                  8.0   844.4066                                                          # DATASET 6 - Observation 2.25
A2.26                 238                  7.0   843.5562                                                          # DATASET 6 - Observation 2.26
A2.27                 239                  7.0   842.8886                                                          # DATASET 6 - Observation 2.27
A2.28                 240                  7.0   841.5414                                                          # DATASET 6 - Observation 2.28
A2.29                 241                  7.0   841.0781                                                          # DATASET 6 - Observation 2.29
A2.30                 242                  9.0   841.1299                                                          # DATASET 6 - Observation 2.30
A2.31                 243                 13.0   841.3189                                                          # DATASET 6 - Observation 2.31
A2.32                 245                 15.0   843.2209                                                          # DATASET 6 - Observation 2.32
A2.33                 246                 14.0   843.1630                                                          # DATASET 6 - Observation 2.33
A2.34                 247                 11.0   844.1292                                                          # DATASET 6 - Observation 2.34
A2.35                 248                 16.0   845.6227                                                          # DATASET 6 - Observation 2.35
A2.36                 249                 15.0   845.2752                                                          # DATASET 6 - Observation 2.36
A2.37                 250                 11.0   845.0131                                                          # DATASET 6 - Observation 2.37
A2.38                 251                 12.0   844.2023                                                          # DATASET 6 - Observation 2.38
A2.39                 252                 15.0   842.7698                                                          # DATASET 6 - Observation 2.39
A2.40                 253                 10.0   842.3339                                                          # DATASET 6 - Observation 2.40
A2.41                 254                 18.0   841.9834                                                          # DATASET 6 - Observation 2.41
A2.42                 255                 15.0   841.7731                                                          # DATASET 6 - Observation 2.42
A2.43                 256                 11.0   841.6633                                                          # DATASET 6 - Observation 2.43
A2.44                 257                 19.0   841.7243                                                          # DATASET 6 - Observation 2.44
A2.45                 258                 13.0   841.7029                                                          # DATASET 6 - Observation 2.45
A2.46                 259                 16.0   842.2272                                                          # DATASET 6 - Observation 2.46
A2.47                 260                 14.0   844.5223                                                          # DATASET 6 - Observation 2.47
A2.48                 261                 21.0   843.3001                                                          # DATASET 6 - Observation 2.48
A2.49                 262                 18.0   843.1142                                                          # DATASET 6 - Observation 2.49
A2.50                 263                 14.0   841.9041                                                          # DATASET 6 - Observation 2.50
A2.51                 264                 21.0   840.9775                                                          # DATASET 6 - Observation 2.51
A2.52                 265                 16.0   840.6758                                                          # DATASET 6 - Observation 2.52
A2.53                 266                 17.0   840.7490                                                          # DATASET 6 - Observation 2.53
A2.54                 267                 14.0   842.5411                                                          # DATASET 6 - Observation 2.54
A2.55                 268                 15.0   842.6296                                                          # DATASET 6 - Observation 2.55
A2.56                 269                 20.0   842.6600                                                          # DATASET 6 - Observation 2.56
A2.57                 270                 20.0   841.6877                                                          # DATASET 6 - Observation 2.57
A2.58                 271                 15.0   842.6052                                                          # DATASET 6 - Observation 2.58
A2.59                 272                 14.0   844.3760                                                          # DATASET 6 - Observation 2.59
A2.60                 273                 21.0   842.9648                                                          # DATASET 6 - Observation 2.60
A2.61                 274                 16.0   842.0748                                                          # DATASET 6 - Observation 2.61
A2.62                 275                 21.0   840.4350                                                          # DATASET 6 - Observation 2.62
A2.63                 276                 20.0   840.0327                                                          # DATASET 6 - Observation 2.63
A2.64                 277                 16.0   840.3832                                                          # DATASET 6 - Observation 2.64
A2.65                 278                 17.0   840.0327                                                          # DATASET 6 - Observation 2.65
A2.66                 279                 20.0   842.1358                                                          # DATASET 6 - Observation 2.66
A2.67                 280                 20.0   843.1416                                                          # DATASET 6 - Observation 2.67
A2.68                 281                 15.0   844.0499                                                          # DATASET 6 - Observation 2.68
A2.69                 282                 20.0   845.5648                                                          # DATASET 6 - Observation 2.69
A2.70                 283                 22.0   844.6473                                                          # DATASET 6 - Observation 2.70
A2.71                 284                 20.0   843.8884                                                          # DATASET 6 - Observation 2.71
A2.72                 285                 21.0   841.9346                                                          # DATASET 6 - Observation 2.72
A2.73                 286                 26.0   840.2917                                                          # DATASET 6 - Observation 2.73
A2.74                 287                 25.0   839.2706                                                          # DATASET 6 - Observation 2.74
A2.75                 288                 22.0   839.2249                                                          # DATASET 6 - Observation 2.75
A2.76                 289                 25.0   838.9506                                                          # DATASET 6 - Observation 2.76
A2.77                 290                 22.0   844.4919                                                          # DATASET 6 - Observation 2.77
A2.78                 291                 19.0   845.3270                                                          # DATASET 6 - Observation 2.78
A2.79                 292                 23.0   844.8058                                                          # DATASET 6 - Observation 2.79
A2.80                 293                 28.0   845.3514                                                          # DATASET 6 - Observation 2.80
A2.81                 294                 28.0   844.7174                                                          # DATASET 6 - Observation 2.81
A2.82                 295                 27.0   844.6473                                                          # DATASET 6 - Observation 2.82
A2.83                 296                 25.0   844.1292                                                          # DATASET 6 - Observation 2.83
A2.84                 297                 26.0   843.1752                                                          # DATASET 6 - Observation 2.84
A2.85                 298                 30.0   842.0108                                                          # DATASET 6 - Observation 2.85
A2.86                 299                 26.0   840.3527                                                          # DATASET 6 - Observation 2.86
A2.87                 300                 27.0   839.5968                                                          # DATASET 6 - Observation 2.87
A2.88                 301                 26.0   839.6608                                                          # DATASET 6 - Observation 2.88
A2.89                 302                 25.0   840.9318                                                          # DATASET 6 - Observation 2.89
A2.90                 303                 29.0   843.4403                                                          # DATASET 6 - Observation 2.90
A2.91                 304                 25.0   844.8241                                                          # DATASET 6 - Observation 2.91
A2.92                 305                 26.0   845.1624                                                          # DATASET 6 - Observation 2.92
A2.93                 306                 24.0   845.5678                                                          # DATASET 6 - Observation 2.93
A2.94                 308                 29.0   845.4398                                                          # DATASET 6 - Observation 2.94
A2.95                 309                 27.0   845.1289                                                          # DATASET 6 - Observation 2.95
A2.96                 310                 28.0   842.5594                                                          # DATASET 6 - Observation 2.96
A2.97                 311                 28.0   842.4863                                                          # DATASET 6 - Observation 2.97
A2.98                 312                 24.0   841.7517                                                          # DATASET 6 - Observation 2.98
A2.99                 313                 28.0   843.6171                                                          # DATASET 6 - Observation 2.99
A2.100                314                 28.0   843.4617                                                          # DATASET 6 - Observation 2.100
A2.101                315                 28.0   843.7969                                                          # DATASET 6 - Observation 2.101
A2.102                316                 28.0   845.2570                                                          # DATASET 6 - Observation 2.102
A2.103                317                 25.0   846.6316                                                          # DATASET 6 - Observation 2.103
A2.104                319                 27.0   846.8693                                                          # DATASET 6 - Observation 2.104
A2.105                320                 31.0   846.7840                                                          # DATASET 6 - Observation 2.105
A2.106                321                 30.0   846.5584                                                          # DATASET 6 - Observation 2.106
A2.107                322                 29.0   845.7781                                                          # DATASET 6 - Observation 2.107
A2.108                323                 29.0   844.7845                                                          # DATASET 6 - Observation 2.108
A2.109                324                 30.0   844.0712                                                          # DATASET 6 - Observation 2.109
A2.110                325                 30.0   844.9399                                                          # DATASET 6 - Observation 2.110
A2.111                326                 30.0   844.9399                                                          # DATASET 6 - Observation 2.111
A2.112                327                 30.0   844.7388                                                          # DATASET 6 - Observation 2.112
A2.113                328                 31.0   844.3212                                                          # DATASET 6 - Observation 2.113
A2.114                329                 28.0   843.8701                                                          # DATASET 6 - Observation 2.114
A2.115                330                 31.0   843.5684                                                          # DATASET 6 - Observation 2.115
A2.116                342                 27.0   845.4002                                                          # DATASET 6 - Observation 2.116
A2.117                345                 14.0   844.8180                                                          # DATASET 6 - Observation 2.117
A4                      1         77        182        -73                  0.0    -0.4632     0.2018     0.0000   # DATASET 3 - Observation 3
         1                                                                                                         # DATASET 5 - Observation 3
A4.1                  225                 22.0   862.4376                                                          # DATASET 6 - Observation 3.1
A4.2                  228                 14.0   859.7371                                                          # DATASET 6 - Observation 3.2
A4.3                  229                  1.0   858.7129                                                          # DATASET 6 - Observation 3.3
A4.4                  230                  9.0   860.9471                                                          # DATASET 6 - Observation 3.4
A4.5                  231                  1.0   861.2092                                                          # DATASET 6 - Observation 3.5
A4.6                  232                  7.0   860.9501                                                          # DATASET 6 - Observation 3.6
A4.7                  233                  4.0   861.4104                                                          # DATASET 6 - Observation 3.7
A4.8                  234                  5.0   862.2578                                                          # DATASET 6 - Observation 3.8
A4.9                  235                  6.0   862.8307                                                          # DATASET 6 - Observation 3.9
A4.10                 237                  7.0   863.9921                                                          # DATASET 6 - Observation 3.10
A4.11                 240                  7.0   860.1454                                                          # DATASET 6 - Observation 3.11
A4.12                 241                  7.0   861.2397                                                          # DATASET 6 - Observation 3.12
A4.13                 242                  8.0   861.4927                                                          # DATASET 6 - Observation 3.13
A4.14                 243                 13.0   861.9681                                                          # DATASET 6 - Observation 3.14
A4.15                 245                 15.0   864.0987                                                          # DATASET 6 - Observation 3.15
A4.16                 246                 14.0   864.1780                                                          # DATASET 6 - Observation 3.16
A4.17                 247                 11.0   864.3974                                                          # DATASET 6 - Observation 3.17
A4.18                 253                 10.0   861.8493                                                          # DATASET 6 - Observation 3.18
A4.19                 254                 18.0   862.0352                                                          # DATASET 6 - Observation 3.19
A4.20                 255                 14.0   861.8737                                                          # DATASET 6 - Observation 3.20
A4.21                 256                 11.0   861.7914                                                          # DATASET 6 - Observation 3.21
A4.22                 257                 19.0   862.8734                                                          # DATASET 6 - Observation 3.22
A4.23                 258                 13.0   863.5257                                                          # DATASET 6 - Observation 3.23
A4.24                 259                 16.0   864.1384                                                          # DATASET 6 - Observation 3.24
A4.25                 264                 21.0   860.5783                                                          # DATASET 6 - Observation 3.25
A4.26                 265                 15.0   860.8434                                                          # DATASET 6 - Observation 3.26
A4.27                 266                 16.0   859.7126                                                          # DATASET 6 - Observation 3.27
A4.28                 267                 14.0   861.9011                                                          # DATASET 6 - Observation 3.28
A4.29                 268                 14.0   863.1539                                                          # DATASET 6 - Observation 3.29
A4.30                 269                 20.0   862.3522                                                          # DATASET 6 - Observation 3.30
A4.31                 270                 20.0   863.8640                                                          # DATASET 6 - Observation 3.31
A4.32                 271                 15.0   863.8671                                                          # DATASET 6 - Observation 3.32
A4.33                 274                 16.0   860.0815                                                          # DATASET 6 - Observation 3.33
A4.34                 276                 20.0   860.5874                                                          # DATASET 6 - Observation 3.34
A4.35                 277                 16.0   859.2921                                                          # DATASET 6 - Observation 3.35
A4.36                 278                 17.0   860.6880                                                          # DATASET 6 - Observation 3.36
A4.37                 279                 20.0   860.4106                                                          # DATASET 6 - Observation 3.37
A4.38                 280                 20.0   860.1607                                                          # DATASET 6 - Observation 3.38