# MODFLOW2000 Discretization File
 2  440  210  180  4  2
 0 0
         0  100.0000(10E12.4)                    0     DELTA-X or C
         0  100.0000(10E12.4)                    0     DELTA-Y or R
        29   1.00000(10e14.6)                   -1     TOP of Model
  1.187730e+03  1.209810e+03  1.232880e+03  1.261260e+03  1.302240e+03  1.338260e+03  1.368100e+03  1.392330e+03  1.399200e+03  1.386920e+03
  1.375320e+03  1.377210e+03  1.412740e+03  1.421020e+03  1.414790e+03  1.415100e+03  1.423250e+03  1.431500e+03  1.446400e+03  1.460490e+03
  1.477000e+03  1.502140e+03  1.515240e+03  1.500230e+03  1.521500e+03  1.532980e+03  1.547360e+03  1.556330e+03  1.564300e+03  1.564790e+03
  1.573760e+03  1.558090e+03  1.555480e+03  1.564520e+03  1.569610e+03  1.562610e+03  1.562950e+03  1.580560e+03  1.598750e+03  1.600810e+03
  1.596950e+03  1.602970e+03  1.617580e+03  1.627190e+03  1.628730e+03  1.615400e+03  1.593800e+03  1.554300e+03  1.491780e+03  1.438090e+03
  1.400580e+03  1.360780e+03  1.301980e+03  1.270380e+03  1.299650e+03  1.318040e+03  1.276250e+03  1.290210e+03  1.305890e+03  1.318720e+03
  1.350340e+03  1.385260e+03  1.379150e+03  1.399980e+03  1.442010e+03  1.474480e+03  1.494050e+03  1.469080e+03  1.432480e+03  1.400950e+03
  1.373650e+03  1.360300e+03  1.328670e+03  1.287990e+03  1.234120e+03  1.209250e+03  1.215360e+03  1.171200e+03  1.152250e+03  1.173020e+03
  1.153810e+03  1.113990e+03  1.130850e+03  1.163490e+03  1.160610e+03  1.123640e+03  1.090930e+03  1.121830e+03  1.124910e+03  1.097250e+03
  1.137890e+03  1.200190e+03  1.237610e+03  1.214740e+03  1.181830e+03  1.175060e+03  1.162660e+03  1.199790e+03  1.242130e+03  1.296160e+03
  1.354550e+03  1.380370e+03  1.364470e+03  1.358710e+03  1.316960e+03  1.281940e+03  1.251840e+03  1.214510e+03  1.185070e+03  1.178520e+03
  1.155900e+03  1.114740e+03  1.065860e+03  1.045170e+03  1.034550e+03  1.013550e+03  9.959300e+02  9.696100e+02  9.533600e+02  9.505700e+02
  9.670500e+02  1.005020e+03  1.026990e+03  1.038690e+03  1.031590e+03  9.909600e+02  9.783600e+02  9.725700e+02  9.840700e+02  1.011550e+03
  1.034640e+03  1.057820e+03  1.097490e+03  1.141000e+03  1.144970e+03  1.122450e+03  1.136890e+03  1.149130e+03  1.118540e+03  1.077140e+03
  1.036550e+03  1.017590e+03  1.026910e+03  1.064190e+03  1.115820e+03  1.120870e+03  1.078210e+03  1.042890e+03  1.013420e+03  9.990300e+02
  9.637800e+02  9.410800e+02  9.425400e+02  9.622400e+02  1.000960e+03  1.039910e+03  1.038630e+03  1.004240e+03  1.028390e+03  1.064390e+03
  1.106320e+03  1.155080e+03  1.157820e+03  1.153530e+03  1.152120e+03  1.158150e+03  1.142350e+03  1.151380e+03  1.181730e+03  1.216860e+03
  1.241260e+03  1.229980e+03  1.247860e+03  1.282050e+03  1.305480e+03  1.339910e+03  1.383280e+03  1.427510e+03  1.469970e+03  1.506090e+03
  1.552760e+03  1.589890e+03  1.622600e+03  1.661330e+03  1.707240e+03  1.756090e+03  1.803870e+03  1.831700e+03  1.814520e+03  1.792530e+03
  1.771840e+03  1.762170e+03  1.753560e+03  1.738570e+03  1.722500e+03  1.693890e+03  1.676200e+03  1.685120e+03  1.672420e+03  1.657270e+03
  1.639660e+03  1.639420e+03  1.627140e+03  1.607830e+03  1.616990e+03  1.636640e+03  1.665810e+03  1.695760e+03  1.700600e+03  1.688720e+03
  1.187480e+03  1.209190e+03  1.235370e+03  1.267490e+03  1.300530e+03  1.336130e+03  1.369130e+03  1.395580e+03  1.418290e+03  1.406230e+03
  1.397720e+03  1.387650e+03  1.410910e+03  1.439950e+03  1.432520e+03  1.432220e+03  1.446610e+03  1.447960e+03  1.466370e+03  1.485480e+03
  1.491170e+03  1.511840e+03  1.540750e+03  1.538900e+03  1.550050e+03  1.566060e+03  1.589080e+03  1.592370e+03  1.603180e+03  1.600350e+03
  1.598170e+03  1.570600e+03  1.569440e+03  1.585270e+03  1.586010e+03  1.568650e+03  1.564760e+03  1.579570e+03  1.597630e+03  1.605690e+03
  1.604700e+03  1.603220e+03  1.611980e+03  1.614520e+03  1.602020e+03  1.581650e+03  1.569150e+03  1.536350e+03  1.482510e+03  1.433330e+03
  1.384360e+03  1.339760e+03  1.307110e+03  1.259370e+03  1.269880e+03  1.289450e+03  1.254300e+03  1.266720e+03  1.270330e+03  1.289440e+03
  1.331460e+03  1.340270e+03  1.355670e+03  1.391370e+03  1.428170e+03  1.453940e+03  1.473490e+03  1.479590e+03  1.449430e+03  1.410570e+03
  1.366080e+03  1.330040e+03  1.299370e+03  1.261040e+03  1.245120e+03  1.253260e+03  1.221330e+03  1.187030e+03  1.142810e+03  1.146800e+03
  1.138740e+03  1.104140e+03  1.097650e+03  1.114420e+03  1.121940e+03  1.097790e+03  1.084350e+03  1.117220e+03  1.108260e+03  1.082670e+03
  1.133130e+03  1.183740e+03  1.193480e+03  1.175530e+03  1.140040e+03  1.131080e+03  1.161370e+03  1.213660e+03  1.258430e+03  1.306030e+03
  1.360740e+03  1.400830e+03  1.384100e+03  1.336630e+03  1.287850e+03  1.245600e+03  1.216660e+03  1.188830e+03  1.146520e+03  1.146390e+03
  1.133450e+03  1.100360e+03  1.062270e+03  1.023960e+03  1.002910e+03  9.923900e+02  9.802300e+02  9.630000e+02  9.516100e+02  9.458300e+02
  9.508800e+02  9.736000e+02  9.887200e+02  9.984900e+02  9.985600e+02  9.749900e+02  9.630900e+02  9.724800e+02  9.909800e+02  1.015050e+03
  1.050430e+03  1.089400e+03  1.122960e+03  1.126020e+03  1.115290e+03  1.087070e+03  1.097240e+03  1.120210e+03  1.097460e+03  1.063230e+03
  1.029770e+03  9.956900e+02  1.012700e+03  1.057870e+03  1.097780e+03  1.089480e+03  1.065430e+03  1.021920e+03  9.959500e+02  9.771800e+02
  9.523300e+02  9.391300e+02  9.578200e+02  9.840100e+02  1.009520e+03  1.014990e+03  1.000030e+03  9.975200e+02  1.034350e+03  1.086690e+03
  1.121530e+03  1.121040e+03  1.120820e+03  1.114700e+03  1.109970e+03  1.121200e+03  1.119880e+03  1.137820e+03  1.150320e+03  1.174100e+03
  1.189110e+03  1.204350e+03  1.243720e+03  1.292660e+03  1.341470e+03  1.369770e+03  1.393370e+03  1.433770e+03  1.491040e+03  1.533970e+03
  1.566110e+03  1.592550e+03  1.624200e+03  1.661250e+03  1.710680e+03  1.763840e+03  1.809780e+03  1.821930e+03  1.799140e+03  1.776000e+03
  1.761520e+03  1.732810e+03  1.715450e+03  1.704770e+03  1.690870e+03  1.688760e+03  1.664480e+03  1.649740e+03  1.643750e+03  1.627750e+03
  1.612400e+03  1.618530e+03  1.621120e+03  1.600470e+03  1.601600e+03  1.626200e+03  1.664540e+03  1.683840e+03  1.678530e+03  1.664980e+03
  1.190610e+03  1.211220e+03  1.243000e+03  1.274350e+03  1.307030e+03  1.338280e+03  1.366120e+03  1.395760e+03  1.423010e+03  1.420000e+03
  1.419450e+03  1.413570e+03  1.412380e+03  1.449290e+03  1.448150e+03  1.449990e+03  1.473460e+03  1.469260e+03  1.488310e+03  1.506150e+03
  1.511640e+03  1.526890e+03  1.561680e+03  1.580370e+03  1.587100e+03  1.594530e+03  1.612170e+03  1.614870e+03  1.630400e+03  1.632020e+03
  1.615210e+03  1.592860e+03  1.597280e+03  1.602200e+03  1.600700e+03  1.582320e+03  1.576400e+03  1.581590e+03  1.593730e+03  1.606060e+03
  1.612440e+03  1.614830e+03  1.608880e+03  1.594570e+03  1.563010e+03  1.543110e+03  1.526330e+03  1.509880e+03  1.474520e+03  1.426320e+03
  1.371320e+03  1.311550e+03  1.281660e+03  1.249000e+03  1.241850e+03  1.265400e+03  1.251870e+03  1.226440e+03  1.225740e+03  1.264930e+03
  1.288790e+03  1.293960e+03  1.345420e+03  1.377120e+03  1.395680e+03  1.411720e+03  1.452700e+03  1.488900e+03  1.457940e+03  1.417390e+03
  1.377040e+03  1.336140e+03  1.298720e+03  1.288220e+03  1.283320e+03  1.248570e+03  1.215710e+03  1.202760e+03  1.166730e+03  1.129960e+03
  1.120510e+03  1.132860e+03  1.116590e+03  1.084840e+03  1.077940e+03  1.066370e+03  1.080150e+03  1.098320e+03  1.087320e+03  1.072980e+03
  1.128650e+03  1.156740e+03  1.156880e+03  1.127780e+03  1.116280e+03  1.126260e+03  1.165100e+03  1.197280e+03  1.234580e+03  1.283710e+03
  1.330370e+03  1.381600e+03  1.367400e+03  1.310710e+03  1.252470e+03  1.213000e+03  1.172510e+03  1.144510e+03  1.120110e+03  1.100760e+03
  1.104690e+03  1.070370e+03  1.043900e+03  1.012850e+03  9.875200e+02  9.758500e+02  9.623700e+02  9.605800e+02  9.572600e+02  9.478900e+02
  9.414000e+02  9.547700e+02  9.660300e+02  9.754500e+02  9.769200e+02  9.602500e+02  9.594900e+02  9.872300e+02  1.017830e+03  1.041570e+03
  1.064980e+03  1.100700e+03  1.113700e+03  1.104190e+03  1.084710e+03  1.065200e+03  1.069160e+03  1.099910e+03  1.088450e+03  1.046810e+03
  1.014250e+03  9.876200e+02  9.964200e+02  1.036850e+03  1.056540e+03  1.042740e+03  1.051070e+03  1.008280e+03  9.738600e+02  9.584300e+02
  9.394400e+02  9.402300e+02  9.757600e+02  9.902600e+02  9.776400e+02  9.751500e+02  9.851200e+02  1.020590e+03  1.066660e+03  1.093870e+03
  1.080270e+03  1.075330e+03  1.080490e+03  1.085780e+03  1.095800e+03  1.106080e+03  1.117890e+03  1.145740e+03  1.160830e+03  1.167790e+03
  1.195250e+03  1.244050e+03  1.263770e+03  1.303050e+03  1.373450e+03  1.424860e+03  1.443320e+03  1.449070e+03  1.487940e+03  1.543070e+03
  1.579280e+03  1.600410e+03  1.628060e+03  1.661300e+03  1.705490e+03  1.759050e+03  1.812630e+03  1.819940e+03  1.806100e+03  1.791930e+03
  1.768460e+03  1.734090e+03  1.694630e+03  1.668800e+03  1.660860e+03  1.672470e+03  1.664560e+03  1.626960e+03  1.602540e+03  1.598630e+03
  1.587530e+03  1.595060e+03  1.603610e+03  1.587290e+03  1.590640e+03  1.618650e+03  1.657630e+03  1.666160e+03  1.648850e+03  1.633480e+03
  1.212430e+03  1.222390e+03  1.245400e+03  1.281560e+03  1.320510e+03  1.348970e+03  1.369740e+03  1.397780e+03  1.428380e+03  1.439020e+03
  1.435390e+03  1.421990e+03  1.423450e+03  1.456780e+03  1.463030e+03  1.461880e+03  1.488840e+03  1.497960e+03  1.506310e+03  1.528130e+03
  1.544440e+03  1.565030e+03  1.585620e+03  1.604620e+03  1.616730e+03  1.619930e+03  1.629320e+03  1.640680e+03  1.652870e+03  1.650680e+03
  1.626200e+03  1.618020e+03  1.619940e+03  1.619130e+03  1.613990e+03  1.604090e+03  1.596050e+03  1.593040e+03  1.599530e+03  1.607080e+03
  1.618160e+03  1.618510e+03  1.598000e+03  1.569650e+03  1.523640e+03  1.481430e+03  1.463320e+03  1.454280e+03  1.438920e+03  1.416490e+03
  1.377290e+03  1.332540e+03  1.294930e+03  1.261280e+03  1.224640e+03  1.224330e+03  1.243340e+03  1.220620e+03  1.200680e+03  1.232190e+03
  1.246910e+03  1.288140e+03  1.318810e+03  1.335740e+03  1.345980e+03  1.391630e+03  1.452470e+03  1.509130e+03  1.497170e+03  1.454530e+03
  1.420600e+03  1.371750e+03  1.337100e+03  1.330030e+03  1.294320e+03  1.266380e+03  1.256990e+03  1.244260e+03  1.206410e+03  1.176400e+03
  1.181750e+03  1.190160e+03  1.163660e+03  1.117670e+03  1.091290e+03  1.080550e+03  1.058820e+03  1.077060e+03  1.067460e+03  1.063780e+03
  1.095180e+03  1.130340e+03  1.128380e+03  1.091070e+03  1.099320e+03  1.134020e+03  1.157540e+03  1.187980e+03  1.227670e+03  1.270580e+03
  1.337580e+03  1.380470e+03  1.348690e+03  1.299810e+03  1.242680e+03  1.205870e+03  1.174150e+03  1.129910e+03  1.095130e+03  1.066560e+03
  1.059700e+03  1.046360e+03  1.013200e+03  1.000430e+03  9.941600e+02  9.876600e+02  9.767800e+02  9.881200e+02  9.790900e+02  9.575700e+02
  9.411100e+02  9.426900e+02  9.546200e+02  9.732300e+02  9.735300e+02  9.534400e+02  9.601800e+02  9.891000e+02  1.030240e+03  1.070000e+03
  1.092690e+03  1.094820e+03  1.077660e+03  1.080360e+03  1.066610e+03  1.043680e+03  1.059750e+03  1.081630e+03  1.100370e+03  1.062440e+03
  1.024090e+03  9.912100e+02  9.758200e+02  9.989500e+02  1.010380e+03  9.978300e+02  1.015750e+03  9.986000e+02  9.540900e+02  9.389100e+02
  9.361500e+02  9.399500e+02  9.515700e+02  9.581400e+02  9.633800e+02  9.786200e+02  1.001740e+03  1.037190e+03  1.080500e+03  1.074870e+03
  1.055680e+03  1.071070e+03  1.091960e+03  1.106970e+03  1.121820e+03  1.138410e+03  1.158570e+03  1.169610e+03  1.205760e+03  1.213700e+03
  1.248190e+03  1.288900e+03  1.312520e+03  1.337120e+03  1.378220e+03  1.427900e+03  1.476590e+03  1.504470e+03  1.528250e+03  1.553850e+03
  1.582340e+03  1.608080e+03  1.641930e+03  1.676610e+03  1.721460e+03  1.775100e+03  1.817520e+03  1.831280e+03  1.806460e+03  1.779880e+03
  1.741540e+03  1.709940e+03  1.684490e+03  1.649710e+03  1.634200e+03  1.646150e+03  1.633440e+03  1.613330e+03  1.581930e+03  1.574560e+03
  1.568300e+03  1.580720e+03  1.580700e+03  1.566640e+03  1.576380e+03  1.614370e+03  1.645000e+03  1.641480e+03  1.623490e+03  1.604280e+03
  1.237880e+03  1.265540e+03  1.261130e+03  1.302060e+03  1.330360e+03  1.359090e+03  1.384640e+03  1.405090e+03  1.431740e+03  1.447060e+03
  1.444560e+03  1.433110e+03  1.434510e+03  1.447890e+03  1.466810e+03  1.479050e+03  1.493710e+03  1.519050e+03  1.532120e+03  1.547200e+03
  1.564000e+03  1.584110e+03  1.600630e+03  1.590790e+03  1.593560e+03  1.615710e+03  1.639640e+03  1.657530e+03  1.664640e+03  1.660790e+03
  1.652300e+03  1.646030e+03  1.640180e+03  1.630800e+03  1.624810e+03  1.622470e+03  1.611930e+03  1.604810e+03  1.611020e+03  1.618060e+03
  1.619830e+03  1.604590e+03  1.570090e+03  1.526320e+03  1.497650e+03  1.438770e+03  1.402110e+03  1.403480e+03  1.391660e+03  1.368290e+03
  1.348210e+03  1.317930e+03  1.302150e+03  1.275230e+03  1.233910e+03  1.196370e+03  1.186240e+03  1.187170e+03  1.175460e+03  1.200400e+03
  1.225780e+03  1.250040e+03  1.272090e+03  1.293370e+03  1.340020e+03  1.397750e+03  1.459290e+03  1.522810e+03  1.546150e+03  1.502050e+03
  1.458200e+03  1.401680e+03  1.379560e+03  1.351820e+03  1.325130e+03  1.304160e+03  1.303220e+03  1.291910e+03  1.252560e+03  1.239400e+03
  1.258520e+03  1.244560e+03  1.185950e+03  1.133500e+03  1.139780e+03  1.127550e+03  1.077560e+03  1.051740e+03  1.047430e+03  1.049310e+03
  1.089450e+03  1.112600e+03  1.079640e+03  1.079120e+03  1.120870e+03  1.167380e+03  1.216550e+03  1.246570e+03  1.286960e+03  1.328090e+03
  1.365600e+03  1.382270e+03  1.361500e+03  1.327680e+03  1.294780e+03  1.254140e+03  1.205070e+03  1.169080e+03  1.132940e+03  1.087040e+03
  1.042110e+03  1.026050e+03  1.022530e+03  1.037260e+03  1.038510e+03  1.009600e+03  9.969000e+02  1.023650e+03  1.019490e+03  9.816400e+02
  9.526000e+02  9.371900e+02  9.479900e+02  9.624700e+02  9.539600e+02  9.501000e+02  9.642100e+02  9.852700e+02  1.018740e+03  1.057130e+03
  1.060980e+03  1.056390e+03  1.047970e+03  1.053990e+03  1.040800e+03  1.030340e+03  1.044500e+03  1.073820e+03  1.102390e+03  1.065020e+03
  1.031940e+03  1.007200e+03  9.789000e+02  9.638400e+02  9.747500e+02  9.655200e+02  9.765800e+02  9.661400e+02  9.414500e+02  9.336300e+02
  9.365600e+02  9.475900e+02  9.592500e+02  9.704800e+02  9.989900e+02  1.021180e+03  1.046330e+03  1.064180e+03  1.080410e+03  1.054050e+03
  1.054200e+03  1.106430e+03  1.145680e+03  1.153370e+03  1.154960e+03  1.161120e+03  1.180800e+03  1.199650e+03  1.228370e+03  1.263480e+03
  1.296340e+03  1.332490e+03  1.358800e+03  1.385230e+03  1.417980e+03  1.463650e+03  1.500240e+03  1.539050e+03  1.560540e+03  1.569120e+03
  1.580470e+03  1.606750e+03  1.645300e+03  1.694750e+03  1.757130e+03  1.786480e+03  1.816420e+03  1.820010e+03  1.797870e+03  1.761840e+03
  1.718810e+03  1.684870e+03  1.658300e+03  1.637020e+03  1.613710e+03  1.612660e+03  1.597040e+03  1.582270e+03  1.566040e+03  1.553550e+03
  1.556920e+03  1.567020e+03  1.560000e+03  1.543720e+03  1.567690e+03  1.609570e+03  1.615700e+03  1.605580e+03  1.594420e+03  1.578600e+03
  1.282610e+03  1.311700e+03  1.287020e+03  1.334810e+03  1.358270e+03  1.379600e+03  1.405750e+03  1.426120e+03  1.441870e+03  1.453460e+03
  1.459350e+03  1.455370e+03  1.455150e+03  1.456580e+03  1.466230e+03  1.491360e+03  1.509640e+03  1.533320e+03  1.541250e+03  1.532300e+03
  1.534960e+03  1.550500e+03  1.560020e+03  1.548220e+03  1.560950e+03  1.584750e+03  1.618790e+03  1.654700e+03  1.653560e+03  1.660120e+03
  1.657640e+03  1.647250e+03  1.625310e+03  1.620330e+03  1.626540e+03  1.626970e+03  1.622960e+03  1.621890e+03  1.621750e+03  1.624630e+03
  1.613040e+03  1.581480e+03  1.545180e+03  1.488360e+03  1.449820e+03  1.417690e+03  1.361900e+03  1.348310e+03  1.348170e+03  1.323030e+03
  1.295100e+03  1.291190e+03  1.274980e+03  1.278270e+03  1.249330e+03  1.218070e+03  1.179450e+03  1.150240e+03  1.173140e+03  1.182670e+03
  1.189620e+03  1.221690e+03  1.263690e+03  1.312100e+03  1.355350e+03  1.403840e+03  1.463520e+03  1.530290e+03  1.576900e+03  1.536420e+03
  1.487070e+03  1.443740e+03  1.422240e+03  1.390740e+03  1.368690e+03  1.348380e+03  1.354140e+03  1.338680e+03  1.294180e+03  1.300040e+03
  1.287320e+03  1.236660e+03  1.201850e+03  1.199760e+03  1.207170e+03  1.162340e+03  1.110460e+03  1.077110e+03  1.049210e+03  1.035660e+03
  1.064120e+03  1.071220e+03  1.061730e+03  1.115130e+03  1.160340e+03  1.200460e+03  1.244260e+03  1.286230e+03  1.324630e+03  1.356330e+03
  1.355780e+03  1.336900e+03  1.348610e+03  1.354940e+03  1.324240e+03  1.284130e+03  1.237870e+03  1.184460e+03  1.132640e+03  1.083740e+03
  1.064710e+03  1.071010e+03  1.082730e+03  1.096640e+03  1.070490e+03  1.019880e+03  1.025970e+03  1.063760e+03  1.058470e+03  1.018120e+03
  9.747100e+02  9.403800e+02  9.352300e+02  9.418900e+02  9.409300e+02  9.612200e+02  9.808100e+02  9.998100e+02  1.022670e+03  1.033330e+03
  1.022000e+03  1.025100e+03  1.021090e+03  1.027380e+03  1.012290e+03  1.036240e+03  1.066740e+03  1.079560e+03  1.120800e+03  1.114260e+03
  1.076460e+03  1.035050e+03  9.969400e+02  9.574200e+02  9.508800e+02  9.488300e+02  9.434600e+02  9.343700e+02  9.315200e+02  9.347100e+02
  9.555500e+02  9.940100e+02  1.006300e+03  1.017880e+03  1.034650e+03  1.066930e+03  1.081430e+03  1.085010e+03  1.072620e+03  1.041200e+03
  1.055010e+03  1.104180e+03  1.149050e+03  1.152550e+03  1.126550e+03  1.141440e+03  1.155220e+03  1.183570e+03  1.214050e+03  1.243440e+03
  1.274930e+03  1.328390e+03  1.373050e+03  1.407040e+03  1.448800e+03  1.481660e+03  1.524220e+03  1.552910e+03  1.563710e+03  1.566770e+03
  1.587210e+03  1.614460e+03  1.649080e+03  1.700950e+03  1.778180e+03  1.789960e+03  1.787960e+03  1.783110e+03  1.778630e+03  1.761800e+03
  1.733150e+03  1.698530e+03  1.663280e+03  1.629030e+03  1.603670e+03  1.580890e+03  1.565390e+03  1.561860e+03  1.549540e+03  1.539410e+03
  1.543490e+03  1.551650e+03  1.536820e+03  1.523000e+03  1.562210e+03  1.581810e+03  1.570850e+03  1.562740e+03  1.556590e+03  1.551020e+03
  1.318440e+03  1.337780e+03  1.314030e+03  1.332420e+03  1.364130e+03  1.391860e+03  1.420070e+03  1.444610e+03  1.462590e+03  1.474810e+03
  1.479110e+03  1.472420e+03  1.471240e+03  1.481390e+03  1.485070e+03  1.496820e+03  1.522760e+03  1.544020e+03  1.526720e+03  1.510130e+03
  1.504910e+03  1.513520e+03  1.511670e+03  1.507100e+03  1.523560e+03  1.547350e+03  1.590780e+03  1.626750e+03  1.625970e+03  1.632560e+03
  1.623760e+03  1.614970e+03  1.594550e+03  1.585860e+03  1.595550e+03  1.611510e+03  1.617810e+03  1.618990e+03  1.623560e+03  1.620620e+03
  1.596290e+03  1.564230e+03  1.523750e+03  1.479910e+03  1.418710e+03  1.376840e+03  1.339860e+03  1.297380e+03  1.288910e+03  1.275650e+03
  1.253540e+03  1.250040e+03  1.237360e+03  1.249970e+03  1.253640e+03  1.228780e+03  1.180260e+03  1.140200e+03  1.150200e+03  1.167790e+03
  1.204660e+03  1.244760e+03  1.285830e+03  1.329910e+03  1.383620e+03  1.432440e+03  1.479170e+03  1.538630e+03  1.595020e+03  1.574850e+03
  1.526510e+03  1.484380e+03  1.449810e+03  1.432030e+03  1.419990e+03  1.397540e+03  1.405300e+03  1.378310e+03  1.346220e+03  1.331970e+03
  1.290760e+03  1.261670e+03  1.249930e+03  1.256360e+03  1.253530e+03  1.201010e+03  1.164680e+03  1.129740e+03  1.089660e+03  1.039390e+03
  1.035060e+03  1.040900e+03  1.074050e+03  1.128280e+03  1.185240e+03  1.235830e+03  1.276680e+03  1.304090e+03  1.297860e+03  1.309230e+03
  1.308460e+03  1.275960e+03  1.297900e+03  1.310150e+03  1.296190e+03  1.259490e+03  1.226320e+03  1.185870e+03  1.136980e+03  1.120900e+03
  1.122370e+03  1.135210e+03  1.142870e+03  1.122920e+03  1.067930e+03  1.049340e+03  1.075980e+03  1.097760e+03  1.066400e+03  1.022750e+03
  9.925000e+02  9.592600e+02  9.331300e+02  9.303100e+02  9.435900e+02  9.605600e+02  9.686800e+02  9.965400e+02  1.009590e+03  1.008060e+03
  9.930100e+02  9.928100e+02  9.867400e+02  9.920800e+02  1.004120e+03  1.056630e+03  1.109180e+03  1.132620e+03  1.129500e+03  1.112650e+03
  1.077150e+03  1.042360e+03  1.007480e+03  9.698500e+02  9.400500e+02  9.323900e+02  9.283300e+02  9.288300e+02  9.333000e+02  9.536800e+02
  1.004150e+03  1.038420e+03  1.050890e+03  1.057680e+03  1.053780e+03  1.070150e+03  1.066880e+03  1.055770e+03  1.052770e+03  1.031270e+03
  1.053440e+03  1.080350e+03  1.100650e+03  1.106430e+03  1.095700e+03  1.114280e+03  1.146380e+03  1.167030e+03  1.187760e+03  1.209040e+03
  1.251720e+03  1.309560e+03  1.342050e+03  1.366880e+03  1.416160e+03  1.470670e+03  1.511900e+03  1.538560e+03  1.554330e+03  1.561970e+03
  1.586650e+03  1.614660e+03  1.660670e+03  1.722200e+03  1.774000e+03  1.772030e+03  1.755900e+03  1.745620e+03  1.749830e+03  1.757640e+03
  1.729770e+03  1.690410e+03  1.663390e+03  1.634160e+03  1.609810e+03  1.588910e+03  1.568480e+03  1.543090e+03  1.542440e+03  1.532440e+03
  1.522140e+03  1.519410e+03  1.505590e+03  1.506010e+03  1.543610e+03  1.533830e+03  1.517140e+03  1.514830e+03  1.516890e+03  1.528630e+03
  1.339970e+03  1.351140e+03  1.355670e+03  1.349280e+03  1.351500e+03  1.383390e+03  1.416840e+03  1.451710e+03  1.486900e+03  1.503510e+03
  1.506330e+03  1.495930e+03  1.494920e+03  1.504710e+03  1.506770e+03  1.510310e+03  1.520710e+03  1.528320e+03  1.516630e+03  1.496410e+03
  1.485540e+03  1.479320e+03  1.472300e+03  1.475660e+03  1.490960e+03  1.518480e+03  1.557350e+03  1.586740e+03  1.593780e+03  1.593310e+03
  1.589400e+03  1.572510e+03  1.561140e+03  1.563410e+03  1.572400e+03  1.586760e+03  1.597900e+03  1.602310e+03  1.608020e+03  1.607100e+03
  1.574970e+03  1.546760e+03  1.507710e+03  1.455780e+03  1.405910e+03  1.354640e+03  1.321000e+03  1.296140e+03  1.266280e+03  1.241410e+03
  1.228010e+03  1.209240e+03  1.199320e+03  1.200900e+03  1.217390e+03  1.226310e+03  1.184970e+03  1.130940e+03  1.145340e+03  1.177170e+03
  1.212670e+03  1.257900e+03  1.307070e+03  1.353310e+03  1.402950e+03  1.458440e+03  1.514240e+03  1.570650e+03  1.624120e+03  1.614260e+03
  1.570160e+03  1.528280e+03  1.490460e+03  1.485730e+03  1.464830e+03  1.436750e+03  1.443670e+03  1.424240e+03  1.394200e+03  1.360170e+03
  1.343870e+03  1.316330e+03  1.302030e+03  1.300260e+03  1.271660e+03  1.229060e+03  1.190730e+03  1.144620e+03  1.091230e+03  1.041760e+03
  1.022200e+03  1.063590e+03  1.110700e+03  1.156920e+03  1.205180e+03  1.248990e+03  1.258180e+03  1.287180e+03  1.245650e+03  1.233140e+03
  1.241140e+03  1.218880e+03  1.242780e+03  1.247990e+03  1.258000e+03  1.251960e+03  1.210700e+03  1.183430e+03  1.177440e+03  1.179510e+03
  1.189040e+03  1.199750e+03  1.188960e+03  1.138560e+03  1.101350e+03  1.097030e+03  1.124830e+03  1.124360e+03  1.084910e+03  1.059760e+03
  1.027110e+03  9.846100e+02  9.459000e+02  9.262300e+02  9.357600e+02  9.476500e+02  9.685500e+02  1.000070e+03  9.942300e+02  9.830800e+02
  9.749700e+02  9.677800e+02  9.642000e+02  9.785200e+02  1.018960e+03  1.071390e+03  1.122150e+03  1.159490e+03  1.121870e+03  1.073060e+03
  1.061220e+03  1.043670e+03  1.002300e+03  9.665400e+02  9.364400e+02  9.259500e+02  9.263400e+02  9.337000e+02  9.614100e+02  9.929800e+02
  1.034400e+03  1.038980e+03  1.035210e+03  1.037970e+03  1.026890e+03  1.027030e+03  1.025370e+03  1.021370e+03  1.021040e+03  1.020210e+03
  1.036420e+03  1.048810e+03  1.057820e+03  1.065930e+03  1.076460e+03  1.094650e+03  1.117730e+03  1.133380e+03  1.166990e+03  1.207880e+03
  1.249530e+03  1.280620e+03  1.302350e+03  1.347480e+03  1.407700e+03  1.464180e+03  1.495470e+03  1.521940e+03  1.537420e+03  1.546040e+03
  1.571240e+03  1.610510e+03  1.668900e+03  1.732090e+03  1.769670e+03  1.753500e+03  1.732670e+03  1.712180e+03  1.718840e+03  1.730160e+03
  1.699460e+03  1.669930e+03  1.651480e+03  1.618790e+03  1.589810e+03  1.595550e+03  1.573230e+03  1.534870e+03  1.511680e+03  1.521450e+03
  1.491510e+03  1.481110e+03  1.478050e+03  1.487200e+03  1.510550e+03  1.481110e+03  1.458510e+03  1.460350e+03  1.480130e+03  1.496820e+03
  1.372450e+03  1.373840e+03  1.399210e+03  1.386930e+03  1.365560e+03  1.383000e+03  1.416030e+03  1.448990e+03  1.482970e+03  1.508510e+03
  1.524180e+03  1.524450e+03  1.521740e+03  1.515670e+03  1.500870e+03  1.484280e+03  1.472840e+03  1.478520e+03  1.486540e+03  1.480650e+03
  1.469930e+03  1.460720e+03  1.451770e+03  1.465060e+03  1.476830e+03  1.494760e+03  1.522090e+03  1.544090e+03  1.547870e+03  1.547390e+03
  1.553440e+03  1.542730e+03  1.549260e+03  1.562080e+03  1.580350e+03  1.584740e+03  1.581270e+03  1.587130e+03  1.578820e+03  1.592250e+03
  1.578540e+03  1.530290e+03  1.479120e+03  1.439450e+03  1.409500e+03  1.373140e+03  1.333230e+03  1.321010e+03  1.287130e+03  1.246290e+03
  1.213810e+03  1.182030e+03  1.165840e+03  1.159530e+03  1.159930e+03  1.180510e+03  1.153580e+03  1.120910e+03  1.146020e+03  1.177720e+03
  1.218030e+03  1.264210e+03  1.311610e+03  1.363450e+03  1.415270e+03  1.469750e+03  1.532460e+03  1.597150e+03  1.652720e+03  1.652310e+03
  1.614280e+03  1.579500e+03  1.546410e+03  1.521160e+03  1.492050e+03  1.462040e+03  1.463140e+03  1.452170e+03  1.426230e+03  1.412480e+03
  1.393530e+03  1.359850e+03  1.338180e+03  1.300650e+03  1.245840e+03  1.196420e+03  1.163450e+03  1.122950e+03  1.076060e+03  1.030780e+03
  1.026750e+03  1.076570e+03  1.111350e+03  1.148010e+03  1.188690e+03  1.218690e+03  1.256800e+03  1.262130e+03  1.215280e+03  1.181430e+03
  1.182210e+03  1.169580e+03  1.188040e+03  1.191070e+03  1.206090e+03  1.222590e+03  1.229050e+03  1.233300e+03  1.229950e+03  1.232400e+03
  1.232100e+03  1.218060e+03  1.200620e+03  1.176370e+03  1.153310e+03  1.145120e+03  1.144540e+03  1.144070e+03  1.113580e+03  1.081220e+03
  1.045680e+03  1.001370e+03  9.575400e+02  9.231700e+02  9.306500e+02  9.477000e+02  9.676100e+02  9.951300e+02  9.814600e+02  9.602600e+02
  9.559200e+02  9.539700e+02  9.712900e+02  9.960300e+02  1.025910e+03  1.072700e+03  1.124380e+03  1.149350e+03  1.111730e+03  1.050500e+03
  1.016670e+03  1.013320e+03  9.848300e+02  9.537000e+02  9.261900e+02  9.237700e+02  9.281700e+02  9.589400e+02  9.990800e+02  1.003680e+03
  1.010730e+03  1.004310e+03  1.003170e+03  1.000870e+03  9.962400e+02  9.961600e+02  9.972200e+02  1.001790e+03  1.005060e+03  1.016730e+03
  1.030360e+03  1.044560e+03  1.059680e+03  1.072780e+03  1.090040e+03  1.099750e+03  1.117070e+03  1.136430e+03  1.155360e+03  1.182310e+03
  1.218440e+03  1.252460e+03  1.297290e+03  1.349790e+03  1.409190e+03  1.450670e+03  1.480890e+03  1.503110e+03  1.520090e+03  1.535420e+03
  1.558240e+03  1.602120e+03  1.665460e+03  1.730080e+03  1.754830e+03  1.740080e+03  1.717970e+03  1.687870e+03  1.678970e+03  1.694550e+03
  1.667870e+03  1.636320e+03  1.617100e+03  1.590150e+03  1.570550e+03  1.590110e+03  1.567610e+03  1.532410e+03  1.491230e+03  1.479920e+03
  1.460570e+03  1.445380e+03  1.449300e+03  1.463760e+03  1.472950e+03  1.436350e+03  1.402000e+03  1.411250e+03  1.440090e+03  1.444590e+03
  1.393390e+03  1.399630e+03  1.421660e+03  1.429130e+03  1.409210e+03  1.389270e+03  1.402060e+03  1.428900e+03  1.456660e+03  1.483850e+03
  1.512670e+03  1.509380e+03  1.486110e+03  1.475290e+03  1.451670e+03  1.426980e+03  1.414150e+03  1.426180e+03  1.455530e+03  1.444170e+03
  1.447710e+03  1.428060e+03  1.416870e+03  1.448540e+03  1.461120e+03  1.463620e+03  1.486750e+03  1.503200e+03  1.502030e+03  1.499520e+03
  1.514580e+03  1.520490e+03  1.541520e+03  1.574910e+03  1.586050e+03  1.584390e+03  1.579380e+03  1.578690e+03  1.555480e+03  1.554360e+03
  1.558010e+03  1.526710e+03  1.485390e+03  1.458750e+03  1.439950e+03  1.403230e+03  1.361280e+03  1.344500e+03  1.300810e+03  1.271620e+03
  1.246550e+03  1.213580e+03  1.173710e+03  1.157630e+03  1.136690e+03  1.129040e+03  1.119370e+03  1.118820e+03  1.149550e+03  1.183220e+03
  1.227490e+03  1.270070e+03  1.315170e+03  1.363200e+03  1.418440e+03  1.477460e+03  1.531050e+03  1.582760e+03  1.641060e+03  1.674510e+03
  1.637140e+03  1.592870e+03  1.554280e+03  1.510160e+03  1.462910e+03  1.441210e+03  1.428190e+03  1.420080e+03  1.415520e+03  1.409330e+03
  1.391120e+03  1.353470e+03  1.315200e+03  1.284790e+03  1.249510e+03  1.208780e+03  1.168650e+03  1.123290e+03  1.078400e+03  1.035520e+03
  1.015700e+03  1.051370e+03  1.090310e+03  1.129070e+03  1.180480e+03  1.237470e+03  1.265940e+03  1.239470e+03  1.197740e+03  1.148330e+03
  1.133930e+03  1.120010e+03  1.130350e+03  1.131880e+03  1.151660e+03  1.177450e+03  1.228310e+03  1.262600e+03  1.249120e+03  1.228340e+03
  1.196690e+03  1.168120e+03  1.161920e+03  1.161180e+03  1.161090e+03  1.143080e+03  1.125360e+03  1.111840e+03  1.100300e+03  1.068180e+03
  1.034740e+03  1.003700e+03  9.613800e+02  9.237600e+02  9.218600e+02  9.398800e+02  9.512900e+02  9.706400e+02  9.567000e+02  9.446400e+02
  9.452100e+02  9.674500e+02  9.951200e+02  1.024650e+03  1.063030e+03  1.113270e+03  1.137880e+03  1.115470e+03  1.086220e+03  1.043310e+03
  9.923700e+02  9.742900e+02  9.454000e+02  9.257500e+02  9.215300e+02  9.252200e+02  9.415100e+02  9.865700e+02  1.001750e+03  9.800800e+02
  9.755900e+02  9.746800e+02  9.805300e+02  9.798600e+02  9.813200e+02  9.896400e+02  1.004010e+03  1.016830e+03  1.020720e+03  1.020630e+03
  1.027870e+03  1.049070e+03  1.076430e+03  1.099070e+03  1.117840e+03  1.135470e+03  1.148260e+03  1.171380e+03  1.180190e+03  1.197010e+03
  1.240140e+03  1.276290e+03  1.315850e+03  1.371320e+03  1.425570e+03  1.456060e+03  1.478710e+03  1.495040e+03  1.504470e+03  1.522590e+03
  1.552670e+03  1.605030e+03  1.668560e+03  1.727810e+03  1.741110e+03  1.731660e+03  1.716250e+03  1.687910e+03  1.655240e+03  1.650820e+03
  1.642790e+03  1.603730e+03  1.579990e+03  1.560170e+03  1.554090e+03  1.570510e+03  1.559060e+03  1.518810e+03  1.483810e+03  1.441860e+03
  1.421520e+03  1.418580e+03  1.416910e+03  1.420580e+03  1.425300e+03  1.402040e+03  1.358620e+03  1.375260e+03  1.394570e+03  1.387710e+03