# MODFLOW Drain Package File - Drains applied at land surface within discharge zone
PARAMETER    1  2869
        2869        50   AUX IFACE
DZ   DRN    1  2869
     0          1          Stress Period 1
     DZ                         
     0          1          Stress Period 2
     DZ                         
     0          1          Stress Period 3
     DZ                         
     0          1          Stress Period 4
     DZ                         
     0          1          Stress Period 5
     DZ                         
     0          1          Stress Period 6
     DZ                         
     0          1          Stress Period 7
     DZ                         
     0          1          Stress Period 8
     DZ                         
     0          1          Stress Period 9
     DZ                         
     0          1          Stress Period 10
     DZ                         
     0          1          Stress Period 11
     DZ                         
     0          1          Stress Period 12
     DZ                         
     0          1          Stress Period 13
     DZ                         
     0          1          Stress Period 14
     DZ                         
     0          1          Stress Period 15
     DZ                         
     0          1          Stress Period 16
     DZ                         
     0          1          Stress Period 17
     DZ                         
     0          1          Stress Period 18
     DZ                         
     0          1          Stress Period 19
     DZ                         
     0          1          Stress Period 20
     DZ                         
     0          1          Stress Period 21
     DZ                         
     0          1          Stress Period 22
     DZ                         
     0          1          Stress Period 23
     DZ                         
     0          1          Stress Period 24
     DZ                         
     0          1          Stress Period 25
     DZ                         
     0          1          Stress Period 26
     DZ                         
     0          1          Stress Period 27
     DZ                         
     0          1          Stress Period 28
     DZ                         
     0          1          Stress Period 29
     DZ                         
     0          1          Stress Period 30
     DZ                         
     0          1          Stress Period 31
     DZ                         
     0          1          Stress Period 32
     DZ                         
     0          1          Stress Period 33
     DZ                         
     0          1          Stress Period 34
     DZ                         
     0          1          Stress Period 35
     DZ                         
     0          1          Stress Period 36
     DZ                         
     0          1          Stress Period 37
     DZ                         
     0          1          Stress Period 38
     DZ                         
     0          1          Stress Period 39
     DZ                         
     0          1          Stress Period 40
     DZ                         
     0          1          Stress Period 41
     DZ                         
     0          1          Stress Period 42
     DZ                         
     0          1          Stress Period 43
     DZ                         
     0          1          Stress Period 44
     DZ                         
     0          1          Stress Period 45
     DZ                         
     0          1          Stress Period 46
     DZ                         
     0          1          Stress Period 47
     DZ                         
     0          1          Stress Period 48
     DZ                         
     0          1          Stress Period 49
     DZ                         
     0          1          Stress Period 50
     DZ                         
     0          1          Stress Period 51
     DZ                         
     0          1          Stress Period 52
     DZ                         
     0          1          Stress Period 53
     DZ                         
     0          1          Stress Period 54
     DZ                         
     0          1          Stress Period 55
     DZ                         
     0          1          Stress Period 56
     DZ                         
     0          1          Stress Period 57
     DZ                         
     0          1          Stress Period 58
     DZ                         
     0          1          Stress Period 59
     DZ                         
     0          1          Stress Period 60
     DZ                         
     0          1          Stress Period 61
     DZ                         
     0          1          Stress Period 62
     DZ                         
     0          1          Stress Period 63
     DZ                         
     0          1          Stress Period 64
     DZ                         
     0          1          Stress Period 65
     DZ                         
     0          1          Stress Period 66
     DZ                         
     0          1          Stress Period 67
     DZ                         
     0          1          Stress Period 68
     DZ                         
     0          1          Stress Period 69
     DZ                         
     0          1          Stress Period 70
     DZ                         
     0          1          Stress Period 71
     DZ                         
     0          1          Stress Period 72
     DZ                         
     0          1          Stress Period 73
     DZ                         
     0          1          Stress Period 74
     DZ                         
     0          1          Stress Period 75
     DZ                         
     0          1          Stress Period 76
     DZ                         
     0          1          Stress Period 77
     DZ                         
     0          1          Stress Period 78
     DZ                         
     0          1          Stress Period 79
     DZ                         
     0          1          Stress Period 80
     DZ                         
     0          1          Stress Period 81
     DZ                         
     0          1          Stress Period 82
     DZ                         
     0          1          Stress Period 83
     DZ                         
     0          1          Stress Period 84
     DZ                         
     0          1          Stress Period 85
     DZ                         
     0          1          Stress Period 86
     DZ                         
     0          1          Stress Period 87
     DZ                         
     0          1          Stress Period 88
     DZ                         
     0          1          Stress Period 89
     DZ                         
     0          1          Stress Period 90
     DZ                         
     0          1          Stress Period 91
     DZ                         
     0          1          Stress Period 92
     DZ                         
     0          1          Stress Period 93
     DZ                         
     0          1          Stress Period 94
     DZ                         
     0          1          Stress Period 95
     DZ                         
     0          1          Stress Period 96
     DZ                         
     0          1          Stress Period 97
     DZ                         
     0          1          Stress Period 98
     DZ                         
     0          1          Stress Period 99
     DZ                         
     0          1          Stress Period 100
     DZ                         
     0          1          Stress Period 101
     DZ                         
     0          1          Stress Period 102
     DZ                         
     0          1          Stress Period 103
     DZ                         
     0          1          Stress Period 104
     DZ                         
     0          1          Stress Period 105
     DZ                         
     0          1          Stress Period 106
     DZ                         
     0          1          Stress Period 107
     DZ                         
     0          1          Stress Period 108
     DZ                         
     0          1          Stress Period 109
     DZ                         
     0          1          Stress Period 110
     DZ                         
     0          1          Stress Period 111
     DZ                         
     0          1          Stress Period 112
     DZ                         
     0          1          Stress Period 113
     DZ                         
     0          1          Stress Period 114
     DZ                         
     0          1          Stress Period 115
     DZ                         
     0          1          Stress Period 116
     DZ                         
     0          1          Stress Period 117
     DZ                         
     0          1          Stress Period 118
     DZ                         
     0          1          Stress Period 119
     DZ                         
     0          1          Stress Period 120
     DZ                         
     0          1          Stress Period 121
     DZ                         
     0          1          Stress Period 122
     DZ                         
     0          1          Stress Period 123
     DZ                         
     0          1          Stress Period 124
     DZ                         
     0          1          Stress Period 125
     DZ                         
     0          1          Stress Period 126
     DZ                         
     0          1          Stress Period 127
     DZ                         
     0          1          Stress Period 128
     DZ                         
     0          1          Stress Period 129
     DZ                         
     0          1          Stress Period 130
     DZ                         
     0          1          Stress Period 131
     DZ                         
     0          1          Stress Period 132
     DZ                         
     0          1          Stress Period 133
     DZ                         
     0          1          Stress Period 134
     DZ                         
     0          1          Stress Period 135
     DZ                         
     0          1          Stress Period 136
     DZ                         
     0          1          Stress Period 137
     DZ                         
     0          1          Stress Period 138
     DZ                         
     0          1          Stress Period 139
     DZ                         
     0          1          Stress Period 140
     DZ                         
     0          1          Stress Period 141
     DZ                         
     0          1          Stress Period 142
     DZ                         
     0          1          Stress Period 143
     DZ                         
     0          1          Stress Period 144
     DZ                         
     0          1          Stress Period 145
     DZ                         
     0          1          Stress Period 146
     DZ                         
     0          1          Stress Period 147
     DZ                         
     0          1          Stress Period 148
     DZ                         
     0          1          Stress Period 149
     DZ                         
     0          1          Stress Period 150
     DZ                         
     0          1          Stress Period 151
     DZ                         
     0          1          Stress Period 152
     DZ                         
     0          1          Stress Period 153
     DZ                         
     0          1          Stress Period 154
     DZ                         
     0          1          Stress Period 155
     DZ                         
     0          1          Stress Period 156
     DZ                         
     0          1          Stress Period 157
     DZ                         
     0          1          Stress Period 158
     DZ                         
     0          1          Stress Period 159
     DZ                         
     0          1          Stress Period 160
     DZ                         
     0          1          Stress Period 161
     DZ                         
     0          1          Stress Period 162
     DZ                         
     0          1          Stress Period 163
     DZ                         
     0          1          Stress Period 164
     DZ                         
     0          1          Stress Period 165
     DZ                         
     0          1          Stress Period 166
     DZ                         
     0          1          Stress Period 167
     DZ                         
     0          1          Stress Period 168
     DZ                         
     0          1          Stress Period 169
     DZ                         
     0          1          Stress Period 170
     DZ                         
     0          1          Stress Period 171
     DZ                         
     0          1          Stress Period 172
     DZ                         
     0          1          Stress Period 173
     DZ                         
     0          1          Stress Period 174
     DZ                         
     0          1          Stress Period 175
     DZ                         
     0          1          Stress Period 176
     DZ                         
     0          1          Stress Period 177
     DZ                         
     0          1          Stress Period 178
     DZ                         
     0          1          Stress Period 179
     DZ                         
     0          1          Stress Period 180
     DZ                         
     0          1          Stress Period 181
     DZ                         
     0          1          Stress Period 182
     DZ                         
     0          1          Stress Period 183
     DZ                         
     0          1          Stress Period 184
     DZ                         
     0          1          Stress Period 185
     DZ                         
     0          1          Stress Period 186
     DZ                         
     0          1          Stress Period 187
     DZ                         
     0          1          Stress Period 188
     DZ                         
     0          1          Stress Period 189
     DZ                         
     0          1          Stress Period 190
     DZ                         
     0          1          Stress Period 191
     DZ                         
     0          1          Stress Period 192
     DZ                         
     0          1          Stress Period 193
     DZ                         
     0          1          Stress Period 194
     DZ                         
     0          1          Stress Period 195
     DZ                         
     0          1          Stress Period 196
     DZ                         
     0          1          Stress Period 197
     DZ                         
     0          1          Stress Period 198
     DZ                         
     0          1          Stress Period 199
     DZ                         
     0          1          Stress Period 200
     DZ                         
     0          1          Stress Period 201
     DZ                         
     0          1          Stress Period 202
     DZ                         
     0          1          Stress Period 203
     DZ                         
     0          1          Stress Period 204
     DZ                         
     0          1          Stress Period 205
     DZ                         
     0          1          Stress Period 206
     DZ                         
     0          1          Stress Period 207
     DZ                         
     0          1          Stress Period 208
     DZ                         
     0          1          Stress Period 209
     DZ                         
     0          1          Stress Period 210
     DZ                         
     0          1          Stress Period 211
     DZ                         
     0          1          Stress Period 212
     DZ                         
     0          1          Stress Period 213
     DZ                         
     0          1          Stress Period 214
     DZ                         
     0          1          Stress Period 215
     DZ                         
     0          1          Stress Period 216
     DZ                         
     0          1          Stress Period 217
     DZ                         
     0          1          Stress Period 218
     DZ                         
     0          1          Stress Period 219
     DZ                         
     0          1          Stress Period 220
     DZ                         
     0          1          Stress Period 221
     DZ                         
     0          1          Stress Period 222
     DZ                         
     0          1          Stress Period 223
     DZ                         
     0          1          Stress Period 224
     DZ                         
     0          1          Stress Period 225
     DZ                         
     0          1          Stress Period 226
     DZ                         
     0          1          Stress Period 227
     DZ                         
     0          1          Stress Period 228
     DZ                         
     0          1          Stress Period 229
     DZ                         
     0          1          Stress Period 230
     DZ                         
     0          1          Stress Period 231
     DZ                         
     0          1          Stress Period 232
     DZ                         
     0          1          Stress Period 233
     DZ                         
     0          1          Stress Period 234
     DZ                         
     0          1          Stress Period 235
     DZ                         
     0          1          Stress Period 236
     DZ                         
     0          1          Stress Period 237
     DZ                         
     0          1          Stress Period 238
     DZ                         
     0          1          Stress Period 239
     DZ                         
     0          1          Stress Period 240
     DZ                         
     0          1          Stress Period 241
     DZ                         
     0          1          Stress Period 242
     DZ                         
     0          1          Stress Period 243
     DZ                         
     0          1          Stress Period 244
     DZ                         
     0          1          Stress Period 245
     DZ                         
     0          1          Stress Period 246
     DZ                         
     0          1          Stress Period 247
     DZ                         
     0          1          Stress Period 248
     DZ                         
     0          1          Stress Period 249
     DZ                         
     0          1          Stress Period 250
     DZ                         
     0          1          Stress Period 251
     DZ                         
     0          1          Stress Period 252
     DZ                         
     0          1          Stress Period 253
     DZ                         
     0          1          Stress Period 254
     DZ                         
     0          1          Stress Period 255
     DZ                         
     0          1          Stress Period 256
     DZ                         
     0          1          Stress Period 257
     DZ                         
     0          1          Stress Period 258
     DZ                         
     0          1          Stress Period 259
     DZ                         
     0          1          Stress Period 260
     DZ                         
     0          1          Stress Period 261
     DZ                         
     0          1          Stress Period 262
     DZ                         
     0          1          Stress Period 263
     DZ                         
     0          1          Stress Period 264
     DZ                         
     0          1          Stress Period 265
     DZ                         
     0          1          Stress Period 266
     DZ                         
     0          1          Stress Period 267
     DZ                         
     0          1          Stress Period 268
     DZ                         
     0          1          Stress Period 269
     DZ                         
     0          1          Stress Period 270
     DZ                         
     0          1          Stress Period 271
     DZ                         
     0          1          Stress Period 272
     DZ                         
     0          1          Stress Period 273
     DZ                         
     0          1          Stress Period 274
     DZ                         
     0          1          Stress Period 275
     DZ                         
     0          1          Stress Period 276
     DZ                         
     0          1          Stress Period 277
     DZ                         
     0          1          Stress Period 278
     DZ                         
     0          1          Stress Period 279
     DZ                         
     0          1          Stress Period 280
     DZ                         
     0          1          Stress Period 281
     DZ                         
     0          1          Stress Period 282
     DZ                         
     0          1          Stress Period 283
     DZ                         
     0          1          Stress Period 284
     DZ                         
     0          1          Stress Period 285
     DZ                         
     0          1          Stress Period 286
     DZ                         
     0          1          Stress Period 287
     DZ                         
     0          1          Stress Period 288
     DZ                         
     0          1          Stress Period 289
     DZ                         
     0          1          Stress Period 290
     DZ                         
     0          1          Stress Period 291
     DZ                         
     0          1          Stress Period 292
     DZ                         
     0          1          Stress Period 293
     DZ                         
     0          1          Stress Period 294
     DZ                         
     0          1          Stress Period 295
     DZ                         
     0          1          Stress Period 296
     DZ                         
     0          1          Stress Period 297
     DZ                         
     0          1          Stress Period 298
     DZ                         
     0          1          Stress Period 299
     DZ                         
     0          1          Stress Period 300
     DZ                         
     0          1          Stress Period 301
     DZ                         
     0          1          Stress Period 302
     DZ                         
     0          1          Stress Period 303
     DZ                         
     0          1          Stress Period 304
     DZ                         
     0          1          Stress Period 305
     DZ                         
     0          1          Stress Period 306
     DZ                         
     0          1          Stress Period 307
     DZ                         
     0          1          Stress Period 308
     DZ                         
     0          1          Stress Period 309
     DZ                         
     0          1          Stress Period 310
     DZ                         
     0          1          Stress Period 311
     DZ                         
     0          1          Stress Period 312
     DZ                         
     0          1          Stress Period 313
     DZ                         
     0          1          Stress Period 314
     DZ                         
     0          1          Stress Period 315
     DZ                         
     0          1          Stress Period 316
     DZ                         
     0          1          Stress Period 317
     DZ                         
     0          1          Stress Period 318
     DZ                         
     0          1          Stress Period 319
     DZ                         
     0          1          Stress Period 320
     DZ                         
     0          1          Stress Period 321
     DZ                         
     0          1          Stress Period 322
     DZ                         
     0          1          Stress Period 323
     DZ                         
     0          1          Stress Period 324
     DZ                         
     0          1          Stress Period 325
     DZ                         
     0          1          Stress Period 326
     DZ                         
     0          1          Stress Period 327
     DZ                         
     0          1          Stress Period 328
     DZ                         
     0          1          Stress Period 329
     DZ                         
     0          1          Stress Period 330
     DZ                         
     0          1          Stress Period 331
     DZ                         
     0          1          Stress Period 332
     DZ                         
     0          1          Stress Period 333
     DZ                         
     0          1          Stress Period 334
     DZ                         
     0          1          Stress Period 335
     DZ                         
     0          1          Stress Period 336
     DZ                         
