# MODFLOW2000 Head Observation File
# Groundwater Vistas also writes drawdown targets here
  4961  0  0 500 -999
  1.0  1.0
A2  1  239  139  -114  0.0  0.250000  0.250000  0.000000  1.000000  1  1
  1
         A21         214    9.000000  844.497081    1.000000    1.000000       1       1
          A22         215   10.000000  842.985273    1.000000    1.000000       1       1
          A23         216   10.000000  842.278137    1.000000    1.000000       1       1
          A24         217   12.000000  842.098305    1.000000    1.000000       1       1
          A25         218   11.000000  842.497593    1.000000    1.000000       1       1
          A26         219   11.000000  842.299473    1.000000    1.000000       1       1
          A27         220   12.000000  842.192793    1.000000    1.000000       1       1
          A28         221   13.000000  842.268993    1.000000    1.000000       1       1
          A29         222   14.000000  842.180601    1.000000    1.000000       1       1
         A210         223   10.000000  843.466857    1.000000    1.000000       1       1
         A211         224   10.000000  843.171201    1.000000    1.000000       1       1
         A212         225   22.000000  842.997465    1.000000    1.000000       1       1
         A213         226   14.000000  842.378721    1.000000    1.000000       1       1
         A214         227   13.000000  842.073921    1.000000    1.000000       1       1
         A215         228   14.000000  841.263153    1.000000    1.000000       1       1
         A216         229    1.000000  841.610625    1.000000    1.000000       1       1
         A217         230    9.000000  841.817889    1.000000    1.000000       1       1
         A218         231    1.000000  842.653041    1.000000    1.000000       1       1
         A219         232    7.000000  843.591825    1.000000    1.000000       1       1
         A220         233    4.000000  843.485145    1.000000    1.000000       1       1
         A221         234    5.000000  843.344937    1.000000    1.000000       1       1
         A222         235    6.000000  843.408945    1.000000    1.000000       1       1
         A223         236    6.000000  843.619257    1.000000    1.000000       1       1
         A224         237    8.000000  845.457201    1.000000    1.000000       1       1
         A225         238    7.000000  844.606809    1.000000    1.000000       1       1
         A226         239    7.000000  843.939297    1.000000    1.000000       1       1
         A227         240    7.000000  842.592081    1.000000    1.000000       1       1
         A228         241    7.000000  842.128785    1.000000    1.000000       1       1
         A229         242    9.000000  842.180601    1.000000    1.000000       1       1
         A230         243   13.000000  842.369577    1.000000    1.000000       1       1
         A231         245   15.000000  844.271529    1.000000    1.000000       1       1
         A232         246   14.000000  844.213617    1.000000    1.000000       1       1
         A233         247   11.000000  845.179833    1.000000    1.000000       1       1
         A234         248   16.000000  846.673353    1.000000    1.000000       1       1
         A235         249   15.000000  846.325881    1.000000    1.000000       1       1
         A236         250   11.000000  846.063753    1.000000    1.000000       1       1
         A237         251   12.000000  845.252985    1.000000    1.000000       1       1
         A238         252   15.000000  843.820425    1.000000    1.000000       1       1
         A239         253   10.000000  843.384561    1.000000    1.000000       1       1
         A240         254   18.000000  843.034041    1.000000    1.000000       1       1
         A241         255   15.000000  842.823729    1.000000    1.000000       1       1
         A242         256   11.000000  842.714001    1.000000    1.000000       1       1
         A243         257   19.000000  842.774961    1.000000    1.000000       1       1
         A244         258   13.000000  842.753625    1.000000    1.000000       1       1
         A245         259   16.000000  843.277881    1.000000    1.000000       1       1
         A246         260   14.000000  845.573025    1.000000    1.000000       1       1
         A247         261   21.000000  844.350777    1.000000    1.000000       1       1
         A248         262   18.000000  844.164849    1.000000    1.000000       1       1
         A249         263   14.000000  842.954793    1.000000    1.000000       1       1
         A250         264   21.000000  842.028201    1.000000    1.000000       1       1
         A251         265   16.000000  841.726449    1.000000    1.000000       1       1
         A252         266   17.000000  841.799601    1.000000    1.000000       1       1
         A253         267   14.000000  843.591825    1.000000    1.000000       1       1
         A254         268   15.000000  843.680217    1.000000    1.000000       1       1
         A255         269   20.000000  843.710697    1.000000    1.000000       1       1
         A256         270   20.000000  842.738385    1.000000    1.000000       1       1
         A257         271   15.000000  843.655833    1.000000    1.000000       1       1
         A258         272   14.000000  845.426721    1.000000    1.000000       1       1
         A259         273   21.000000  844.015497    1.000000    1.000000       1       1
         A260         274   16.000000  843.125481    1.000000    1.000000       1       1
         A261         275   21.000000  841.485657    1.000000    1.000000       1       1
         A262         276   20.000000  841.083321    1.000000    1.000000       1       1
         A263         277   16.000000  841.433841    1.000000    1.000000       1       1
         A264         278   17.000000  841.083321    1.000000    1.000000       1       1
         A265         279   20.000000  843.186441    1.000000    1.000000       1       1
         A266         280   20.000000  844.192281    1.000000    1.000000       1       1
         A267         281   15.000000  845.100585    1.000000    1.000000       1       1
         A268         282   20.000000  846.615441    1.000000    1.000000       1       1
         A269         283   22.000000  845.697993    1.000000    1.000000       1       1
         A270         284   20.000000  844.939041    1.000000    1.000000       1       1
         A271         285   21.000000  842.985273    1.000000    1.000000       1       1
         A272         286   26.000000  841.342401    1.000000    1.000000       1       1
         A273         287   25.000000  840.321321    1.000000    1.000000       1       1
         A274         288   22.000000  840.275601    1.000000    1.000000       1       1
         A275         289   25.000000  840.001281    1.000000    1.000000       1       1
         A276         290   22.000000  845.542545    1.000000    1.000000       1       1
         A277         291   19.000000  846.377697    1.000000    1.000000       1       1
         A278         292   23.000000  845.856489    1.000000    1.000000       1       1
         A279         293   28.000000  846.402081    1.000000    1.000000       1       1
         A280         294   28.000000  845.768097    1.000000    1.000000       1       1
         A281         295   27.000000  845.697993    1.000000    1.000000       1       1
         A282         296   25.000000  845.179833    1.000000    1.000000       1       1
         A283         297   26.000000  844.225809    1.000000    1.000000       1       1
         A284         298   30.000000  843.061473    1.000000    1.000000       1       1
         A285         299   26.000000  841.403361    1.000000    1.000000       1       1
         A286         300   27.000000  840.647457    1.000000    1.000000       1       1
         A287         301   26.000000  840.711465    1.000000    1.000000       1       1
         A288         302   25.000000  841.982481    1.000000    1.000000       1       1
         A289         303   29.000000  844.490985    1.000000    1.000000       1       1
         A290         304   25.000000  845.874777    1.000000    1.000000       1       1
         A291         305   26.000000  846.213105    1.000000    1.000000       1       1
         A292         306   24.000000  846.618489    1.000000    1.000000       1       1
         A293         308   29.000000  846.490473    1.000000    1.000000       1       1
         A294         309   27.000000  846.179577    1.000000    1.000000       1       1
         A295         310   28.000000  843.610113    1.000000    1.000000       1       1
         A296         311   28.000000  843.536961    1.000000    1.000000       1       1
         A297         312   24.000000  842.802393    1.000000    1.000000       1       1
         A298         313   28.000000  844.667769    1.000000    1.000000       1       1
         A299         314   28.000000  844.512321    1.000000    1.000000       1       1
        A2100         315   28.000000  844.847601    1.000000    1.000000       1       1
        A2101         316   28.000000  846.307593    1.000000    1.000000       1       1
        A2102         317   25.000000  847.682241    1.000000    1.000000       1       1
        A2103         319   27.000000  847.919985    1.000000    1.000000       1       1
        A2104         320   31.000000  847.834641    1.000000    1.000000       1       1
        A2105         321   30.000000  847.609089    1.000000    1.000000       1       1
        A2106         322   29.000000  846.828801    1.000000    1.000000       1       1
        A2107         323   29.000000  845.835153    1.000000    1.000000       1       1
        A2108         324   30.000000  845.121921    1.000000    1.000000       1       1
        A2109         325   30.000000  845.990601    1.000000    1.000000       1       1
        A2110         326   30.000000  845.990601    1.000000    1.000000       1       1
        A2111         327   30.000000  845.789433    1.000000    1.000000       1       1
        A2112         328   31.000000  845.371857    1.000000    1.000000       1       1
        A2113         329   28.000000  844.920753    1.000000    1.000000       1       1
        A2114         330   31.000000  844.619001    1.000000    1.000000       1       1
A4  1  77  182  -74  0.0  -0.324200  0.250000  0.000000  1.000000  1  1
  1
         A41         225   22.000000  863.657681    1.000000    1.000000       1       1
          A42         228   14.000000  860.957153    1.000000    1.000000       1       1
          A43         229    1.000000  859.933025    1.000000    1.000000       1       1
          A44         230    9.000000  862.167209    1.000000    1.000000       1       1
          A45         231    1.000000  862.429337    1.000000    1.000000       1       1
          A46         232    7.000000  862.170257    1.000000    1.000000       1       1
          A47         233    4.000000  862.630505    1.000000    1.000000       1       1
          A48         234    5.000000  863.477849    1.000000    1.000000       1       1
          A49         235    6.000000  864.050873    1.000000    1.000000       1       1
         A410         237    7.000000  865.212161    1.000000    1.000000       1       1
         A411         240    7.000000  861.365585    1.000000    1.000000       1       1
         A412         241    7.000000  862.459817    1.000000    1.000000       1       1
         A413         242    8.000000  862.712801    1.000000    1.000000       1       1
         A414         243   13.000000  863.188289    1.000000    1.000000       1       1
         A415         245   15.000000  865.318841    1.000000    1.000000       1       1
         A416         246   14.000000  865.398089    1.000000    1.000000       1       1
         A417         247   11.000000  865.617545    1.000000    1.000000       1       1
         A418         253   10.000000  863.069417    1.000000    1.000000       1       1
         A419         254   18.000000  863.255345    1.000000    1.000000       1       1
         A420         255   14.000000  863.093801    1.000000    1.000000       1       1
         A421         256   11.000000  863.011505    1.000000    1.000000       1       1
         A422         257   19.000000  864.093545    1.000000    1.000000       1       1
         A423         258   13.000000  864.745817    1.000000    1.000000       1       1
         A424         259   16.000000  865.358465    1.000000    1.000000       1       1
         A425         264   21.000000  861.798401    1.000000    1.000000       1       1
         A426         265   15.000000  862.063577    1.000000    1.000000       1       1
         A427         266   16.000000  860.932769    1.000000    1.000000       1       1
         A428         267   14.000000  863.121233    1.000000    1.000000       1       1
         A429         268   14.000000  864.373961    1.000000    1.000000       1       1
         A430         269   20.000000  863.572337    1.000000    1.000000       1       1
         A431         270   20.000000  865.084145    1.000000    1.000000       1       1
         A432         271   15.000000  865.087193    1.000000    1.000000       1       1
         A433         274   16.000000  861.301577    1.000000    1.000000       1       1
         A434         276   20.000000  861.807545    1.000000    1.000000       1       1
         A435         277   16.000000  860.512145    1.000000    1.000000       1       1
         A436         278   17.000000  861.908129    1.000000    1.000000       1       1
         A437         279   20.000000  861.630761    1.000000    1.000000       1       1
         A438         280   20.000000  861.380825    1.000000    1.000000       1       1
         A439         281   15.000000  861.130889    1.000000    1.000000       1       1
         A440         282   19.000000  862.027001    1.000000    1.000000       1       1
         A441         286   26.000000  859.420961    1.000000    1.000000       1       1
         A442         287   25.000000  859.939121    1.000000    1.000000       1       1
         A443         288   22.000000  860.691977    1.000000    1.000000       1       1
         A444         289   25.000000  861.429593    1.000000    1.000000       1       1
         A445         290   22.000000  861.493601    1.000000    1.000000       1       1
         A446         291   19.000000  862.459817    1.000000    1.000000       1       1
         A447         292   23.000000  863.928953    1.000000    1.000000       1       1
         A448         293   28.000000  865.285313    1.000000    1.000000       1       1
         A449         294   28.000000  865.157297    1.000000    1.000000       1       1
         A450         299   26.000000  861.798401    1.000000    1.000000       1       1
         A451         300   27.000000  861.676481    1.000000    1.000000       1       1
         A452         301   26.000000  862.005665    1.000000    1.000000       1       1
         A453         302   25.000000  862.133681    1.000000    1.000000       1       1
         A454         303   29.000000  862.789001    1.000000    1.000000       1       1
         A455         304   25.000000  864.995753    1.000000    1.000000       1       1
         A456         305   26.000000  865.422473    1.000000    1.000000       1       1
         A457         306   24.000000  865.861385    1.000000    1.000000       1       1
         A458         307   25.000000  865.334081    1.000000    1.000000       1       1
         A459         308   29.000000  864.980513    1.000000    1.000000       1       1
         A460         312   24.000000  862.215977    1.000000    1.000000       1       1
         A461         313   28.000000  863.026745    1.000000    1.000000       1       1
         A462         314   28.000000  864.282521    1.000000    1.000000       1       1
         A463         315   28.000000  865.212161    1.000000    1.000000       1       1
         A464         316   28.000000  865.840049    1.000000    1.000000       1       1
         A465         317   25.000000  866.272865    1.000000    1.000000       1       1
         A466         317   25.000000  865.459049    1.000000    1.000000       1       1
         A467         319   27.000000  865.507817    1.000000    1.000000       1       1
         A468         324   30.000000  862.862153    1.000000    1.000000       1       1
         A469         325   30.000000  863.105993    1.000000    1.000000       1       1
         A470         326   30.000000  863.105993    1.000000    1.000000       1       1
         A471         327   30.000000  863.066369    1.000000    1.000000       1       1
         A472         328   31.000000  862.892633    1.000000    1.000000       1       1
         A473         329   28.000000  863.017601    1.000000    1.000000       1       1
         A474         330   31.000000  863.935049    1.000000    1.000000       1       1
B3  1  152  93  -55  0.0  -0.250000  -0.382400  0.000000  1.000000  1  1
  1
         B31         186   30.000000  842.315393    1.000000    1.000000       1       1
          B32         188    3.000000  841.992305    1.000000    1.000000       1       1
          B33         189    1.000000  841.690553    1.000000    1.000000       1       1
          B34         190    7.000000  841.062665    1.000000    1.000000       1       1
          B35         191    3.000000  840.535361    1.000000    1.000000       1       1
          B36         192    6.000000  839.861753    1.000000    1.000000       1       1
          B37         193    6.000000  839.215577    1.000000    1.000000       1       1
          B38         194    3.000000  839.029649    1.000000    1.000000       1       1
          B39         195    8.000000  839.541713    1.000000    1.000000       1       1
         B310         196    9.000000  841.084001    1.000000    1.000000       1       1
         B311         197    6.000000  840.995609    1.000000    1.000000       1       1
         B312         198    9.000000  842.150801    1.000000    1.000000       1       1
         B313         199    4.000000  841.946585    1.000000    1.000000       1       1
         B314         200    9.000000  841.468049    1.000000    1.000000       1       1
         B315         201    4.000000  841.498529    1.000000    1.000000       1       1
         B316         202    6.000000  840.608513    1.000000    1.000000       1       1
         B317         203    4.000000  840.239705    1.000000    1.000000       1       1
         B318         204    5.000000  838.865057    1.000000    1.000000       1       1
         B319         205    4.000000  838.237169    1.000000    1.000000       1       1
         B320         206    5.000000  838.612073    1.000000    1.000000       1       1
         B321         207    6.000000  839.200337    1.000000    1.000000       1       1
         B322         208    7.000000  840.193985    1.000000    1.000000       1       1
         B323         209   12.000000  841.166297    1.000000    1.000000       1       1
         B324         210    7.000000  841.248593    1.000000    1.000000       1       1
         B325         211    7.000000  841.757609    1.000000    1.000000       1       1
         B326         212    7.000000  841.495481    1.000000    1.000000       1       1
         B327         213   10.000000  841.385753    1.000000    1.000000       1       1
         B328         214    9.000000  840.760913    1.000000    1.000000       1       1
         B329         215   10.000000  840.117785    1.000000    1.000000       1       1
         B330         216   10.000000  839.212529    1.000000    1.000000       1       1
         B331         217   12.000000  838.941257    1.000000    1.000000       1       1
         B332         219   12.000000  838.950401    1.000000    1.000000       1       1
         B333         220   12.000000  839.669729    1.000000    1.000000       1       1
         B334         221   15.000000  839.788601    1.000000    1.000000       1       1
         B335         222   14.000000  840.084257    1.000000    1.000000       1       1
         B336         223   13.000000  840.264089    1.000000    1.000000       1       1
         B337         224   14.000000  840.309809    1.000000    1.000000       1       1
         B338         226   15.000000  840.285425    1.000000    1.000000       1       1
         B339         227   14.000000  839.380169    1.000000    1.000000       1       1
         B340         228   14.000000  838.295081    1.000000    1.000000       1       1
         B341         229    1.000000  838.328609    1.000000    1.000000       1       1
         B342         230    9.000000  838.032953    1.000000    1.000000       1       1
         B343         231    4.000000  837.609281    1.000000    1.000000       1       1
         B344         232    9.000000  838.474913    1.000000    1.000000       1       1
         B345         233    4.000000  839.791649    1.000000    1.000000       1       1
         B346         234    5.000000  840.370769    1.000000    1.000000       1       1
         B347         235    6.000000  841.102289    1.000000    1.000000       1       1
         B348         236    6.000000  841.632641    1.000000    1.000000       1       1
         B349         237    7.000000  841.309553    1.000000    1.000000       1       1
         B350         238    7.000000  841.111433    1.000000    1.000000       1       1
         B351         239    7.000000  840.770057    1.000000    1.000000       1       1
         B352         240    9.000000  839.925761    1.000000    1.000000       1       1
         B353         241    8.000000  839.465513    1.000000    1.000000       1       1
         B354         242    9.000000  839.730689    1.000000    1.000000       1       1
         B355         243   14.000000  840.465257    1.000000    1.000000       1       1
B9  1  187  68  -16  0.0  0.250000  -0.250000  0.000000  1.000000  1  1
  1
         B91         226   15.000000  852.248305    1.000000    1.000000       1       1
          B92         227   14.000000  850.449985    1.000000    1.000000       1       1
          B93         228   14.000000  848.740057    1.000000    1.000000       1       1
          B94         229    1.000000  849.895249    1.000000    1.000000       1       1
          B95         230    9.000000  847.569625    1.000000    1.000000       1       1
          B96         231    4.000000  847.185577    1.000000    1.000000       1       1
          B97         232    9.000000  847.130713    1.000000    1.000000       1       1
          B98         233    4.000000  849.663601    1.000000    1.000000       1       1
          B99         234    5.000000  851.961793    1.000000    1.000000       1       1
         B910         235    6.000000  853.626001    1.000000    1.000000       1       1
         B911         236    6.000000  854.878729    1.000000    1.000000       1       1
         B912         237    7.000000  855.305449    1.000000    1.000000       1       1
         B913         238    7.000000  854.567833    1.000000    1.000000       1       1
         B914         239    8.000000  853.671721    1.000000    1.000000       1       1
         B915         240    9.000000  851.973985    1.000000    1.000000       1       1
         B916         241    8.000000  850.882801    1.000000    1.000000       1       1
C11  1  124  136  -113  0.0  -0.250000  0.250000  0.000000  1.000000  1  1
  1
        C111         217   12.000000  828.452201    1.000000    1.000000       1       1
         C112         218   11.000000  828.421721    1.000000    1.000000       1       1
         C113         219   11.000000  831.478865    1.000000    1.000000       1       1
         C114         220   12.000000  831.759281    1.000000    1.000000       1       1
         C115         221   13.000000  831.274649    1.000000    1.000000       1       1
         C116         222   14.000000  830.814401    1.000000    1.000000       1       1
         C117         223   10.000000  831.865961    1.000000    1.000000       1       1
         C118         224   10.000000  830.826593    1.000000    1.000000       1       1
         C119         225   22.000000  831.847673    1.000000    1.000000       1       1
        C1110         226   15.000000  831.850721    1.000000    1.000000       1       1
        C1111         227   14.000000  829.269065    1.000000    1.000000       1       1
        C1112         228   14.000000  828.223601    1.000000    1.000000       1       1
        C1113         229    1.000000  828.040721    1.000000    1.000000       1       1
        C1114         230    9.000000  828.251033    1.000000    1.000000       1       1
        C1115         231    1.000000  827.949281    1.000000    1.000000       1       1
        C1116         232    7.000000  828.845393    1.000000    1.000000       1       1
        C1117         233    4.000000  831.198449    1.000000    1.000000       1       1
        C1118         234    5.000000  831.332561    1.000000    1.000000       1       1
        C1119         235    6.000000  831.384377    1.000000    1.000000       1       1
        C1120         236    5.000000  830.972897    1.000000    1.000000       1       1
        C1121         237    7.000000  831.911681    1.000000    1.000000       1       1
        C1122         238    7.000000  831.545921    1.000000    1.000000       1       1
        C1123         239    7.000000  831.408761    1.000000    1.000000       1       1
        C1124         240    7.000000  829.570817    1.000000    1.000000       1       1
        C1125         241    7.000000  828.376001    1.000000    1.000000       1       1
        C1126         242    8.000000  828.601553    1.000000    1.000000       1       1
        C1127         243   13.000000  829.290401    1.000000    1.000000       1       1
        C1128         245   15.000000  829.842089    1.000000    1.000000       1       1
        C1129         246   14.000000  829.622633    1.000000    1.000000       1       1
        C1130         247   11.000000  830.756489    1.000000    1.000000       1       1
        C1131         248   12.000000  831.204545    1.000000    1.000000       1       1
        C1132         249   13.000000  832.131137    1.000000    1.000000       1       1
        C1133         250   11.000000  831.881201    1.000000    1.000000       1       1
        C1134         251   12.000000  831.466673    1.000000    1.000000       1       1
        C1135         252   13.000000  829.583009    1.000000    1.000000       1       1
        C1136         253   10.000000  829.549481    1.000000    1.000000       1       1
        C1137         254   18.000000  829.138001    1.000000    1.000000       1       1
        C1138         255   14.000000  829.442801    1.000000    1.000000       1       1
        C1139         256   11.000000  830.229185    1.000000    1.000000       1       1
        C1140         257   19.000000  829.305641    1.000000    1.000000       1       1
        C1141         258   13.000000  828.933785    1.000000    1.000000       1       1
        C1142         259   16.000000  829.945721    1.000000    1.000000       1       1
        C1143         260   12.000000  831.134441    1.000000    1.000000       1       1
        C1144         261   19.000000  831.445337    1.000000    1.000000       1       1
        C1145         262   18.000000  830.722961    1.000000    1.000000       1       1
        C1146         263   14.000000  829.016081    1.000000    1.000000       1       1
        C1147         264   21.000000  828.260177    1.000000    1.000000       1       1
        C1148         265   15.000000  827.970617    1.000000    1.000000       1       1
        C1149         266   16.000000  827.953244    1.000000    1.000000       1       1
        C1150         267   14.000000  829.458041    1.000000    1.000000       1       1
        C1151         268   14.000000  829.351361    1.000000    1.000000       1       1
        C1152         269   20.000000  829.586057    1.000000    1.000000       1       1
        C1153         270   20.000000  829.683593    1.000000    1.000000       1       1
        C1154         271   15.000000  829.704929    1.000000    1.000000       1       1
        C1155         272   14.000000  831.198449    1.000000    1.000000       1       1
        C1156         273   21.000000  830.857073    1.000000    1.000000       1       1
        C1157         274   16.000000  829.677497    1.000000    1.000000       1       1
        C1158         275   21.000000  828.153497    1.000000    1.000000       1       1
        C1159         276   20.000000  828.116921    1.000000    1.000000       1       1
        C1160         277   16.000000  827.934041    1.000000    1.000000       1       1
        C1161         278   17.000000  827.918801    1.000000    1.000000       1       1
        C1162         279   20.000000  828.065105    1.000000    1.000000       1       1
        C1163         280   20.000000  827.982809    1.000000    1.000000       1       1
        C1164         281   15.000000  828.561929    1.000000    1.000000       1       1
        C1165         282   19.000000  830.101169    1.000000    1.000000       1       1
        C1166         283   22.000000  830.908889    1.000000    1.000000       1       1
        C1167         284   20.000000  830.942417    1.000000    1.000000       1       1
        C1168         285   21.000000  829.046561    1.000000    1.000000       1       1