# MODFLOW2000 Head Observation File
# Groundwater Vistas also writes drawdown targets here
  5222  0  0 500 -999
  1.0  1.0
