BEGIN Options Keywords
  Verbose = 5
END Options
 
BEGIN UCODE_Control_Data Keywords
  ModelName = SVIHMv3
  ModelLengthUnits = m
  ModelTimeUnits = d
  Sensitivities = False
  LinearityAdv = No
  SOSSurface = False
  DataExchange = True
END UCODE_Control_Data
 
BEGIN Reg_GN_Controls Keywords
  TolSOSC = 0.01
  MaxIter = 30
END Reg_GN_Controls
 
BEGIN Model_Command_Lines Keywords
  Command = ..\Run_SVIHM.bat
    Purpose = Forward
    CommandID = ForwardModel
END Model_Command_Lines
 
BEGIN Parameter_Groups Files
 .\UCODE_Input_Files\SVIHM.pargrp
END Parameter_Groups
 
BEGIN Parameter_Data Files
 .\UCODE_Input_Files\SVIHM.param
END Parameter_Data
 
BEGIN Observation_Groups Files
 .\UCODE_Input_Files\SVIHM.obsgrp
END Observation_Groups
 
BEGIN Observation_Data Files
 .\UCODE_Input_Files\SVIHM.flowobs
 .\UCODE_Input_Files\SVIHM.headobs
END Observation_Data
 
BEGIN Model_Input_Files Keywords
  ModInFile = ..\SWBM\general_inputs.txt
    TemplateFile = .\UCODE_Template_Files\SVIHM_SWBM_General_Inputs.jtf
  ModInFile = ..\SWBM\irr_eff.txt
    TemplateFile = .\UCODE_Template_Files\SVIHM_SWBM_Irr_Effs.jtf
  ModInFile = ..\SWBM\crop_coeff_mult.txt
    TemplateFile = .\UCODE_Template_Files\SVIHM_SWBM_Crop_Coeff_Mults.jtf     
  ModInFile = ..\MODFLOW\SVIHM.PVL
    TemplateFile = .\UCODE_Template_Files\SVIHM_PVAL.jtf
  ModInFile = ..\MODFLOW\SVIHM.SFR
    TemplateFile = .\UCODE_Template_Files\SVIHM_SFR.jtf
END Model_Input_Files
 
BEGIN Model_Output_Files Keywords
  ModOutFile = ..\MODFLOW\Streamflow_FJ_SVIHM.txt
    InstructionFile = .\UCODE_Instruction_Files\Streamflow_FJ_SVIHM.txt.jif
    Category = Obs
  ModOutFile = ..\MODFLOW\Streamflow_BY_SVIHM.txt
    InstructionFile = .\UCODE_Instruction_Files\Streamflow_BY_SVIHM.txt.jif
    Category = Obs
  ModOutFile =  ..\MODFLOW\Streamflow_AS_SVIHM.txt
    InstructionFile = .\UCODE_Instruction_Files\Streamflow_AS_SVIHM.txt.jif
    Category = Obs
  ModOutFile = ..\MODFLOW\Streamflow_Shackleford_SVIHM.txt
    InstructionFile = .\UCODE_Instruction_Files\Streamflow_Shackleford_SVIHM.txt.jif
    Category = Obs
  ModOutFile = ..\MODFLOW\HobData_SVIHM.txt
    InstructionFile = .\UCODE_Instruction_Files\HobData_SVIHM.txt.jif
    Category = Obs
END Model_Output_Files
 
BEGIN Parallel_Control Keywords
  Parallel = False
END Parallel_Control
 
BEGIN Parallel_Runners Table
  NROW=5 NCOL=3 COLUMNLABELS
  RunnerName RunnerDir RunTime
  Runner1 Runner1\ 100000
  Runner2 Runner2\ 100000
  Runner3 Runner3\ 100000
  Runner4 Runner4\ 100000
  Runner5 Runner5\ 100000
END Parallel_Runners
 
