# HOB package for MODFLOW-NWT generated by Flopy 3.3.6
     10116        45         2       500      -999
         1
28P001M_37.0            2         67         90         37                 17.0     0.3306     0.1902   817.8485   # DATASET 3 - Observation 1
28P001M_43.0            2         67         90         43                  1.0     0.3306     0.1902   820.9575   # DATASET 3 - Observation 2
28P001M_49.0            2         67         90         49                 27.0     0.3306     0.1902   817.3303   # DATASET 3 - Observation 3
28P001M_54.0            2         67         90         55                  0.0     0.3306     0.1902   825.8038   # DATASET 3 - Observation 4
28P001M_61.0            2         67         90         61                 18.0     0.3306     0.1902   819.3115   # DATASET 3 - Observation 5
28P001M_66.0            2         67         90         66                 29.0     0.3306     0.1902   825.4990   # DATASET 3 - Observation 6
28P001M_73.0            2         67         90         73                 24.0     0.3306     0.1902   818.8239   # DATASET 3 - Observation 7
28P001M_78.0            2         67         90         78                 13.0     0.3306     0.1902   824.9503   # DATASET 3 - Observation 8
28P001M_85.0            2         67         90         85                 23.0     0.3306     0.1902   818.2752   # DATASET 3 - Observation 9
28P001M_91.0            2         67         90         91                  1.0     0.3306     0.1902   825.7733   # DATASET 3 - Observation 10
28P001M_97.0            2         67         90         97                 27.0     0.3306     0.1902   819.3725   # DATASET 3 - Observation 11
28P001M_102.0            2         67         90        102                 16.0     0.3306     0.1902   825.9257   # DATASET 3 - Observation 12
28P001M_109.0            2         67         90        109                 26.0     0.3306     0.1902   818.5496   # DATASET 3 - Observation 13
28P001M_114.0            2         67         90        114                 24.0     0.3306     0.1902   825.2551   # DATASET 3 - Observation 14
28P001M_121.0            2         67         90        121                 10.0     0.3306     0.1902   818.5496   # DATASET 3 - Observation 15
28P001M_126.0            2         67         90        126                 29.0     0.3306     0.1902   817.9704   # DATASET 3 - Observation 16
28P001M_133.0            2         67         90        133                 29.0     0.3306     0.1902   816.4160   # DATASET 3 - Observation 17
28P001M_138.0            2         67         90        138                 27.0     0.3306     0.1902   824.1578   # DATASET 3 - Observation 18
28P001M_142.0            2         67         90        142                 16.0     0.3306     0.1902   820.7441   # DATASET 3 - Observation 19
28P001M_143.0            2         67         90        143                 14.0     0.3306     0.1902   819.8602   # DATASET 3 - Observation 20
28P001M_144.0            2         67         90        144                 19.0     0.3306     0.1902   818.6410   # DATASET 3 - Observation 21
28P001M_145.0            2         67         90        145                  9.0     0.3306     0.1902   817.4827   # DATASET 3 - Observation 22
28P001M_150.0            2         67         90        150                 24.0     0.3306     0.1902   824.9808   # DATASET 3 - Observation 23
28P001M_152.0            2         67         90        152                  7.0     0.3306     0.1902   825.1942   # DATASET 3 - Observation 24
28P001M_153.0            2         67         90        153                  6.0     0.3306     0.1902   823.7616   # DATASET 3 - Observation 25
28P001M_154.0            2         67         90        154                  2.0     0.3306     0.1902   822.6034   # DATASET 3 - Observation 26
28P001M_155.0            2         67         90        155                 12.0     0.3306     0.1902   820.9879   # DATASET 3 - Observation 27
28P001M_156.0            2         67         90        156                  5.0     0.3306     0.1902   819.9211   # DATASET 3 - Observation 28
28P001M_157.0            2         67         90        157                  6.0     0.3306     0.1902   818.9763   # DATASET 3 - Observation 29
28P001M_158.0            2         67         90        158                  5.0     0.3306     0.1902   818.4581   # DATASET 3 - Observation 30
28P001M_162.0            2         67         90        162                 29.0     0.3306     0.1902   825.4380   # DATASET 3 - Observation 31
28P001M_166.0            2         67         90        166                 21.0     0.3306     0.1902   820.2260   # DATASET 3 - Observation 32
28P001M_167.0            2         67         90        167                 11.0     0.3306     0.1902   820.2564   # DATASET 3 - Observation 33
28P001M_169.0            2         67         90        169                 28.0     0.3306     0.1902   818.1228   # DATASET 3 - Observation 34
28P001M_175.0            2         67         90        175                  6.0     0.3306     0.1902   822.9996   # DATASET 3 - Observation 35
28P001M_181.0            2         67         90        181                 17.0     0.3306     0.1902   818.6714   # DATASET 3 - Observation 36
28P001M_187.0            2         67         90        187                 19.0     0.3306     0.1902   825.4075   # DATASET 3 - Observation 37
28P001M_193.0            2         67         90        193                 17.0     0.3306     0.1902   819.0067   # DATASET 3 - Observation 38
28P001M_198.0            2         67         90        198                 26.0     0.3306     0.1902   825.6514   # DATASET 3 - Observation 39
28P001M_205.0            2         67         90        205                 24.0     0.3306     0.1902   817.9399   # DATASET 3 - Observation 40
28P001M_211.0            2         67         90        211                  3.0     0.3306     0.1902   825.6819   # DATASET 3 - Observation 41
28P001M_217.0            2         67         90        217                 28.0     0.3306     0.1902   818.2905   # DATASET 3 - Observation 42
28P001M_223.0            2         67         90        223                  6.0     0.3306     0.1902   819.8754   # DATASET 3 - Observation 43
A2_213.0                1        239        139        213                 10.0     0.2575     0.3216   844.9818   # DATASET 3 - Observation 44
A2_214.0                1        239        139        214                  9.0     0.2575     0.3216   844.4971   # DATASET 3 - Observation 45
A2_215.0                1        239        139        215                 10.0     0.2575     0.3216   842.9853   # DATASET 3 - Observation 46
A2_216.0                1        239        139        216                 10.0     0.2575     0.3216   842.2781   # DATASET 3 - Observation 47
A2_217.0                1        239        139        217                 12.0     0.2575     0.3216   842.0983   # DATASET 3 - Observation 48
A2_218.0                1        239        139        218                 11.0     0.2575     0.3216   842.4976   # DATASET 3 - Observation 49
A2_219.0                1        239        139        219                 11.0     0.2575     0.3216   842.2995   # DATASET 3 - Observation 50
A2_220.0                1        239        139        220                 12.0     0.2575     0.3216   842.1928   # DATASET 3 - Observation 51
A2_221.0                1        239        139        221                 13.0     0.2575     0.3216   842.2690   # DATASET 3 - Observation 52
A2_222.0                1        239        139        222                 14.0     0.2575     0.3216   842.1806   # DATASET 3 - Observation 53
A2_223.0                1        239        139        223                 10.0     0.2575     0.3216   843.4669   # DATASET 3 - Observation 54
A2_224.0                1        239        139        224                 10.0     0.2575     0.3216   843.1712   # DATASET 3 - Observation 55
A2_225.0                1        239        139        225                 22.0     0.2575     0.3216   842.9974   # DATASET 3 - Observation 56
A2_226.0                1        239        139        226                 14.0     0.2575     0.3216   842.3787   # DATASET 3 - Observation 57
A2_227.0                1        239        139        227                 13.0     0.2575     0.3216   842.0739   # DATASET 3 - Observation 58
A2_228.0                1        239        139        228                 14.0     0.2575     0.3216   841.2632   # DATASET 3 - Observation 59
A2_229.0                1        239        139        229                  1.0     0.2575     0.3216   841.6106   # DATASET 3 - Observation 60
A2_230.0                1        239        139        230                  9.0     0.2575     0.3216   841.8179   # DATASET 3 - Observation 61
A2_231.0                1        239        139        231                  1.0     0.2575     0.3216   842.6530   # DATASET 3 - Observation 62
A2_232.0                1        239        139        232                  7.0     0.2575     0.3216   843.5918   # DATASET 3 - Observation 63
A2_233.0                1        239        139        233                  4.0     0.2575     0.3216   843.4852   # DATASET 3 - Observation 64
A2_234.0                1        239        139        234                  5.0     0.2575     0.3216   843.3449   # DATASET 3 - Observation 65
A2_235.0                1        239        139        235                  6.0     0.2575     0.3216   843.4089   # DATASET 3 - Observation 66
A2_236.0                1        239        139        236                  6.0     0.2575     0.3216   843.6193   # DATASET 3 - Observation 67
A2_237.0                1        239        139        237                  8.0     0.2575     0.3216   845.4572   # DATASET 3 - Observation 68
A2_238.0                1        239        139        238                  7.0     0.2575     0.3216   844.6068   # DATASET 3 - Observation 69
A2_239.0                1        239        139        239                  7.0     0.2575     0.3216   843.9393   # DATASET 3 - Observation 70
A2_240.0                1        239        139        240                  7.0     0.2575     0.3216   842.5921   # DATASET 3 - Observation 71
A2_241.0                1        239        139        241                  7.0     0.2575     0.3216   842.1288   # DATASET 3 - Observation 72
A2_242.0                1        239        139        242                  9.0     0.2575     0.3216   842.1806   # DATASET 3 - Observation 73
A2_243.0                1        239        139        243                 13.0     0.2575     0.3216   842.3696   # DATASET 3 - Observation 74
A2_245.0                1        239        139        245                 15.0     0.2575     0.3216   844.2715   # DATASET 3 - Observation 75
A2_246.0                1        239        139        246                 14.0     0.2575     0.3216   844.2136   # DATASET 3 - Observation 76
A2_247.0                1        239        139        247                 11.0     0.2575     0.3216   845.1798   # DATASET 3 - Observation 77
A2_248.0                1        239        139        248                 16.0     0.2575     0.3216   846.6733   # DATASET 3 - Observation 78
A2_249.0                1        239        139        249                 15.0     0.2575     0.3216   846.3259   # DATASET 3 - Observation 79
A2_250.0                1        239        139        250                 11.0     0.2575     0.3216   846.0638   # DATASET 3 - Observation 80
A2_251.0                1        239        139        251                 12.0     0.2575     0.3216   845.2530   # DATASET 3 - Observation 81
A2_252.0                1        239        139        252                 15.0     0.2575     0.3216   843.8204   # DATASET 3 - Observation 82
A2_253.0                1        239        139        253                 10.0     0.2575     0.3216   843.3846   # DATASET 3 - Observation 83
A2_254.0                1        239        139        254                 18.0     0.2575     0.3216   843.0341   # DATASET 3 - Observation 84
A2_255.0                1        239        139        255                 15.0     0.2575     0.3216   842.8237   # DATASET 3 - Observation 85
A2_256.0                1        239        139        256                 11.0     0.2575     0.3216   842.7140   # DATASET 3 - Observation 86
A2_257.0                1        239        139        257                 19.0     0.2575     0.3216   842.7750   # DATASET 3 - Observation 87
A2_258.0                1        239        139        258                 13.0     0.2575     0.3216   842.7536   # DATASET 3 - Observation 88
A2_259.0                1        239        139        259                 16.0     0.2575     0.3216   843.2779   # DATASET 3 - Observation 89
A2_260.0                1        239        139        260                 14.0     0.2575     0.3216   845.5730   # DATASET 3 - Observation 90
A2_261.0                1        239        139        261                 21.0     0.2575     0.3216   844.3508   # DATASET 3 - Observation 91
A2_262.0                1        239        139        262                 18.0     0.2575     0.3216   844.1649   # DATASET 3 - Observation 92
A2_263.0                1        239        139        263                 14.0     0.2575     0.3216   842.9548   # DATASET 3 - Observation 93
A2_264.0                1        239        139        264                 21.0     0.2575     0.3216   842.0282   # DATASET 3 - Observation 94
A2_265.0                1        239        139        265                 16.0     0.2575     0.3216   841.7264   # DATASET 3 - Observation 95
A2_266.0                1        239        139        266                 17.0     0.2575     0.3216   841.7996   # DATASET 3 - Observation 96
A2_267.0                1        239        139        267                 14.0     0.2575     0.3216   843.5918   # DATASET 3 - Observation 97
A2_268.0                1        239        139        268                 15.0     0.2575     0.3216   843.6802   # DATASET 3 - Observation 98
A2_269.0                1        239        139        269                 20.0     0.2575     0.3216   843.7107   # DATASET 3 - Observation 99
A2_270.0                1        239        139        270                 20.0     0.2575     0.3216   842.7384   # DATASET 3 - Observation 100
A2_271.0                1        239        139        271                 15.0     0.2575     0.3216   843.6558   # DATASET 3 - Observation 101
A2_272.0                1        239        139        272                 14.0     0.2575     0.3216   845.4267   # DATASET 3 - Observation 102
A2_273.0                1        239        139        273                 21.0     0.2575     0.3216   844.0155   # DATASET 3 - Observation 103
A2_274.0                1        239        139        274                 16.0     0.2575     0.3216   843.1255   # DATASET 3 - Observation 104
A2_275.0                1        239        139        275                 21.0     0.2575     0.3216   841.4857   # DATASET 3 - Observation 105
A2_276.0                1        239        139        276                 20.0     0.2575     0.3216   841.0833   # DATASET 3 - Observation 106
A2_277.0                1        239        139        277                 16.0     0.2575     0.3216   841.4338   # DATASET 3 - Observation 107
A2_278.0                1        239        139        278                 17.0     0.2575     0.3216   841.0833   # DATASET 3 - Observation 108
A2_279.0                1        239        139        279                 20.0     0.2575     0.3216   843.1865   # DATASET 3 - Observation 109
A2_280.0                1        239        139        280                 20.0     0.2575     0.3216   844.1923   # DATASET 3 - Observation 110
A2_281.0                1        239        139        281                 15.0     0.2575     0.3216   845.1006   # DATASET 3 - Observation 111
A2_282.0                1        239        139        282                 20.0     0.2575     0.3216   846.6154   # DATASET 3 - Observation 112
A2_283.0                1        239        139        283                 22.0     0.2575     0.3216   845.6980   # DATASET 3 - Observation 113
A2_284.0                1        239        139        284                 20.0     0.2575     0.3216   844.9390   # DATASET 3 - Observation 114
A2_285.0                1        239        139        285                 21.0     0.2575     0.3216   842.9853   # DATASET 3 - Observation 115
A2_286.0                1        239        139        286                 26.0     0.2575     0.3216   841.3424   # DATASET 3 - Observation 116
A2_287.0                1        239        139        287                 25.0     0.2575     0.3216   840.3214   # DATASET 3 - Observation 117
A2_288.0                1        239        139        288                 22.0     0.2575     0.3216   840.2756   # DATASET 3 - Observation 118
A2_289.0                1        239        139        289                 25.0     0.2575     0.3216   840.0013   # DATASET 3 - Observation 119
A2_290.0                1        239        139        290                 22.0     0.2575     0.3216   845.5425   # DATASET 3 - Observation 120
A2_291.0                1        239        139        291                 19.0     0.2575     0.3216   846.3777   # DATASET 3 - Observation 121
A2_292.0                1        239        139        292                 23.0     0.2575     0.3216   845.8565   # DATASET 3 - Observation 122
A2_293.0                1        239        139        294                  0.0     0.2575     0.3216   846.4021   # DATASET 3 - Observation 123
A2_294.0                1        239        139        294                 28.0     0.2575     0.3216   845.7681   # DATASET 3 - Observation 124
A2_295.0                1        239        139        295                 27.0     0.2575     0.3216   845.6980   # DATASET 3 - Observation 125
A2_296.0                1        239        139        296                 25.0     0.2575     0.3216   845.1798   # DATASET 3 - Observation 126
A2_297.0                1        239        139        297                 26.0     0.2575     0.3216   844.2258   # DATASET 3 - Observation 127
A2_298.0                1        239        139        298                 30.0     0.2575     0.3216   843.0615   # DATASET 3 - Observation 128
A2_299.0                1        239        139        299                 26.0     0.2575     0.3216   841.4034   # DATASET 3 - Observation 129
A2_300.0                1        239        139        300                 27.0     0.2575     0.3216   840.6475   # DATASET 3 - Observation 130
A2_301.0                1        239        139        301                 26.0     0.2575     0.3216   840.7115   # DATASET 3 - Observation 131
A2_302.0                1        239        139        302                 25.0     0.2575     0.3216   841.9825   # DATASET 3 - Observation 132
A2_303.0                1        239        139        303                 29.0     0.2575     0.3216   844.4910   # DATASET 3 - Observation 133
A2_304.0                1        239        139        304                 25.0     0.2575     0.3216   845.8748   # DATASET 3 - Observation 134
A2_305.0                1        239        139        305                 26.0     0.2575     0.3216   846.2131   # DATASET 3 - Observation 135
A2_306.0                1        239        139        306                 24.0     0.2575     0.3216   846.6185   # DATASET 3 - Observation 136
A2_308.0                1        239        139        308                 29.0     0.2575     0.3216   846.4905   # DATASET 3 - Observation 137
A2_309.0                1        239        139        309                 27.0     0.2575     0.3216   846.1796   # DATASET 3 - Observation 138
A2_310.0                1        239        139        310                 28.0     0.2575     0.3216   843.6101   # DATASET 3 - Observation 139
A2_311.0                1        239        139        311                 28.0     0.2575     0.3216   843.5370   # DATASET 3 - Observation 140
A2_312.0                1        239        139        312                 24.0     0.2575     0.3216   842.8024   # DATASET 3 - Observation 141
A2_313.0                1        239        139        313                 28.0     0.2575     0.3216   844.6678   # DATASET 3 - Observation 142
A2_314.0                1        239        139        314                 28.0     0.2575     0.3216   844.5123   # DATASET 3 - Observation 143
A2_315.0                1        239        139        315                 28.0     0.2575     0.3216   844.8476   # DATASET 3 - Observation 144
A2_316.0                1        239        139        316                 28.0     0.2575     0.3216   846.3076   # DATASET 3 - Observation 145
A2_317.0                1        239        139        317                 25.0     0.2575     0.3216   847.6823   # DATASET 3 - Observation 146
A2_319.0                1        239        139        319                 27.0     0.2575     0.3216   847.9200   # DATASET 3 - Observation 147
A2_320.0                1        239        139        321                  0.0     0.2575     0.3216   847.8347   # DATASET 3 - Observation 148
A2_321.0                1        239        139        322                  0.0     0.2575     0.3216   847.6091   # DATASET 3 - Observation 149
A2_322.0                1        239        139        322                 29.0     0.2575     0.3216   846.8288   # DATASET 3 - Observation 150
A2_323.0                1        239        139        323                 29.0     0.2575     0.3216   845.8351   # DATASET 3 - Observation 151
A2_324.0                1        239        139        325                  0.0     0.2575     0.3216   845.1219   # DATASET 3 - Observation 152
A2_325.0                1        239        139        325                 30.0     0.2575     0.3216   845.9906   # DATASET 3 - Observation 153
A2_326.0                1        239        139        327                  0.0     0.2575     0.3216   845.9906   # DATASET 3 - Observation 154
A2_327.0                1        239        139        327                 30.0     0.2575     0.3216   845.7894   # DATASET 3 - Observation 155
A2_328.0                1        239        139        329                  0.0     0.2575     0.3216   845.3719   # DATASET 3 - Observation 156
A2_329.0                1        239        139        330                  0.0     0.2575     0.3216   844.9208   # DATASET 3 - Observation 157
A2_330.0                1        239        139        331                  0.0     0.2575     0.3216   844.6190   # DATASET 3 - Observation 158
A2_342.0                1        239        139        342                 27.0     0.2575     0.3216   846.4509   # DATASET 3 - Observation 159
A2_345.0                1        239        139        345                 14.0     0.2575     0.3216   845.8687   # DATASET 3 - Observation 160
A4_225.0                1         77        182        225                 22.0    -0.4632     0.2018   863.6577   # DATASET 3 - Observation 161
A4_228.0                1         77        182        228                 14.0    -0.4632     0.2018   860.9572   # DATASET 3 - Observation 162
A4_229.0                1         77        182        229                  1.0    -0.4632     0.2018   859.9330   # DATASET 3 - Observation 163
A4_230.0                1         77        182        230                  9.0    -0.4632     0.2018   862.1672   # DATASET 3 - Observation 164
A4_231.0                1         77        182        231                  1.0    -0.4632     0.2018   862.4293   # DATASET 3 - Observation 165
A4_232.0                1         77        182        232                  7.0    -0.4632     0.2018   862.1702   # DATASET 3 - Observation 166
A4_233.0                1         77        182        233                  4.0    -0.4632     0.2018   862.6305   # DATASET 3 - Observation 167
A4_234.0                1         77        182        234                  5.0    -0.4632     0.2018   863.4778   # DATASET 3 - Observation 168
A4_235.0                1         77        182        235                  6.0    -0.4632     0.2018   864.0509   # DATASET 3 - Observation 169
A4_237.0                1         77        182        237                  7.0    -0.4632     0.2018   865.2122   # DATASET 3 - Observation 170
A4_240.0                1         77        182        240                  7.0    -0.4632     0.2018   861.3656   # DATASET 3 - Observation 171
A4_241.0                1         77        182        241                  7.0    -0.4632     0.2018   862.4598   # DATASET 3 - Observation 172
A4_242.0                1         77        182        242                  8.0    -0.4632     0.2018   862.7128   # DATASET 3 - Observation 173
A4_243.0                1         77        182        243                 13.0    -0.4632     0.2018   863.1883   # DATASET 3 - Observation 174
A4_245.0                1         77        182        245                 15.0    -0.4632     0.2018   865.3188   # DATASET 3 - Observation 175
A4_246.0                1         77        182        246                 14.0    -0.4632     0.2018   865.3981   # DATASET 3 - Observation 176
A4_247.0                1         77        182        247                 11.0    -0.4632     0.2018   865.6176   # DATASET 3 - Observation 177
A4_253.0                1         77        182        253                 10.0    -0.4632     0.2018   863.0694   # DATASET 3 - Observation 178
A4_254.0                1         77        182        254                 18.0    -0.4632     0.2018   863.2554   # DATASET 3 - Observation 179
A4_255.0                1         77        182        255                 14.0    -0.4632     0.2018   863.0938   # DATASET 3 - Observation 180
A4_256.0                1         77        182        256                 11.0    -0.4632     0.2018   863.0115   # DATASET 3 - Observation 181
A4_257.0                1         77        182        257                 19.0    -0.4632     0.2018   864.0936   # DATASET 3 - Observation 182
A4_258.0                1         77        182        258                 13.0    -0.4632     0.2018   864.7458   # DATASET 3 - Observation 183
A4_259.0                1         77        182        259                 16.0    -0.4632     0.2018   865.3585   # DATASET 3 - Observation 184
A4_264.0                1         77        182        264                 21.0    -0.4632     0.2018   861.7984   # DATASET 3 - Observation 185
A4_265.0                1         77        182        265                 15.0    -0.4632     0.2018   862.0636   # DATASET 3 - Observation 186
A4_266.0                1         77        182        266                 16.0    -0.4632     0.2018   860.9327   # DATASET 3 - Observation 187
A4_267.0                1         77        182        267                 14.0    -0.4632     0.2018   863.1212   # DATASET 3 - Observation 188
A4_268.0                1         77        182        268                 14.0    -0.4632     0.2018   864.3740   # DATASET 3 - Observation 189
A4_269.0                1         77        182        269                 20.0    -0.4632     0.2018   863.5723   # DATASET 3 - Observation 190
A4_270.0                1         77        182        270                 20.0    -0.4632     0.2018   865.0842   # DATASET 3 - Observation 191
A4_271.0                1         77        182        271                 15.0    -0.4632     0.2018   865.0872   # DATASET 3 - Observation 192
A4_274.0                1         77        182        274                 16.0    -0.4632     0.2018   861.3016   # DATASET 3 - Observation 193
A4_276.0                1         77        182        276                 20.0    -0.4632     0.2018   861.8076   # DATASET 3 - Observation 194
A4_277.0                1         77        182        277                 16.0    -0.4632     0.2018   860.5121   # DATASET 3 - Observation 195
A4_278.0                1         77        182        278                 17.0    -0.4632     0.2018   861.9081   # DATASET 3 - Observation 196
A4_279.0                1         77        182        279                 20.0    -0.4632     0.2018   861.6307   # DATASET 3 - Observation 197
A4_280.0                1         77        182        280                 20.0    -0.4632     0.2018   861.3808   # DATASET 3 - Observation 198
A4_281.0                1         77        182        281                 15.0    -0.4632     0.2018   861.1309   # DATASET 3 - Observation 199
A4_282.0                1         77        182        282                 19.0    -0.4632     0.2018   862.0270   # DATASET 3 - Observation 200
A4_286.0                1         77        182        286                 26.0    -0.4632     0.2018   859.4210   # DATASET 3 - Observation 201
A4_287.0                1         77        182        287                 25.0    -0.4632     0.2018   859.9391   # DATASET 3 - Observation 202
A4_288.0                1         77        182        288                 22.0    -0.4632     0.2018   860.6920   # DATASET 3 - Observation 203
A4_289.0                1         77        182        289                 25.0    -0.4632     0.2018   861.4296   # DATASET 3 - Observation 204
A4_290.0                1         77        182        290                 22.0    -0.4632     0.2018   861.4936   # DATASET 3 - Observation 205
A4_291.0                1         77        182        291                 19.0    -0.4632     0.2018   862.4598   # DATASET 3 - Observation 206