# MODFLOW Drain Package File - Drains applied at land surface within discharge zone
PARAMETER    1  2869
        2869        50   AUX IFACE
DZ   DRN    1  2869
         1       121       115    835.62 1.000e+04
          1       122       112    843.72 1.000e+04
          1       122       113    840.50 1.000e+04
          1       122       114    837.21 1.000e+04
          1       122       115    835.31 1.000e+04
          1       123       111    845.61 1.000e+04
          1       123       112    841.56 1.000e+04
          1       123       113    838.32 1.000e+04
          1       123       114    835.81 1.000e+04
          1       123       115    834.09 1.000e+04
          1       123       116    832.51 1.000e+04
          1       124       109    863.18 1.000e+04
          1       124       110    850.76 1.000e+04
          1       124       111    844.87 1.000e+04
          1       124       112    840.43 1.000e+04
          1       124       113    836.27 1.000e+04
          1       124       114    833.88 1.000e+04
          1       124       115    832.69 1.000e+04
          1       124       116    831.63 1.000e+04
          1       125       108    855.98 1.000e+04
          1       125       109    852.00 1.000e+04
          1       125       110    848.35 1.000e+04
          1       125       111    844.54 1.000e+04
          1       125       112    839.90 1.000e+04
          1       125       113    835.39 1.000e+04
          1       125       114    832.41 1.000e+04
          1       125       115    831.19 1.000e+04
          1       125       116    830.21 1.000e+04
          1       126       107    854.31 1.000e+04
          1       126       108    851.34 1.000e+04
          1       126       109    848.98 1.000e+04
          1       126       110    846.01 1.000e+04
          1       126       111    842.42 1.000e+04
          1       126       112    839.32 1.000e+04
          1       126       113    834.55 1.000e+04
          1       126       114    831.54 1.000e+04
          1       126       115    830.35 1.000e+04
          1       126       116    829.31 1.000e+04
          1       127       106    857.07 1.000e+04
          1       127       107    859.86 1.000e+04
          1       127       109    845.87 1.000e+04
          1       127       110    843.68 1.000e+04
          1       127       111    839.34 1.000e+04
          1       127       112    836.78 1.000e+04
          1       127       113    834.32 1.000e+04
          1       127       114    831.93 1.000e+04
          1       127       115    830.38 1.000e+04
          1       127       116    829.24 1.000e+04
          1       128       105    856.77 1.000e+04
          1       128       106    857.96 1.000e+04
          1       128       110    841.01 1.000e+04
          1       128       111    838.51 1.000e+04
          1       128       112    836.13 1.000e+04
          1       128       113    833.91 1.000e+04
          1       128       114    831.89 1.000e+04
          1       128       115    830.16 1.000e+04
          1       128       116    828.99 1.000e+04
          1       129       104    858.38 1.000e+04
          1       129       105    853.48 1.000e+04
          1       129       106    850.39 1.000e+04
          1       129       110    838.67 1.000e+04
          1       129       111    837.52 1.000e+04
          1       129       112    835.55 1.000e+04
          1       129       113    833.48 1.000e+04
          1       129       114    831.07 1.000e+04
          1       129       115    829.50 1.000e+04
          1       129       116    829.28 1.000e+04
          1       130       103    864.65 1.000e+04
          1       130       104    854.57 1.000e+04
          1       130       105    850.53 1.000e+04
          1       130       106    847.57 1.000e+04
          1       130       107    844.93 1.000e+04
          1       130       108    842.50 1.000e+04
          1       130       109    839.51 1.000e+04
          1       130       110    836.86 1.000e+04
          1       130       111    835.96 1.000e+04
          1       130       112    834.45 1.000e+04
          1       130       113    832.38 1.000e+04
          1       130       114    830.47 1.000e+04
          1       130       115    829.54 1.000e+04
          1       131       102    864.57 1.000e+04
          1       131       103    852.83 1.000e+04
          1       131       104    849.82 1.000e+04
          1       131       105    847.61 1.000e+04
          1       131       106    845.72 1.000e+04
          1       131       107    843.33 1.000e+04
          1       131       108    841.21 1.000e+04
          1       131       109    838.95 1.000e+04
          1       131       110    836.54 1.000e+04
          1       131       111    834.37 1.000e+04
          1       131       112    832.67 1.000e+04
          1       131       113    830.28 1.000e+04
          1       131       114    829.82 1.000e+04
          1       131       115    829.72 1.000e+04
          1       132       101    867.02 1.000e+04
          1       132       102    864.29 1.000e+04
          1       132       103    848.96 1.000e+04
          1       132       104    845.93 1.000e+04
          1       132       105    844.14 1.000e+04
          1       132       106    843.01 1.000e+04
          1       132       107    841.44 1.000e+04
          1       132       108    839.92 1.000e+04
          1       132       109    838.02 1.000e+04
          1       132       110    836.19 1.000e+04
          1       132       111    834.40 1.000e+04
          1       132       112    832.31 1.000e+04
          1       132       113    830.11 1.000e+04
          1       132       114    829.40 1.000e+04
          1       132       115    829.51 1.000e+04
          1       133       100    862.51 1.000e+04
          1       133       101    857.71 1.000e+04
          1       133       102    855.19 1.000e+04
          1       133       103    846.46 1.000e+04
          1       133       104    842.98 1.000e+04
          1       133       105    840.93 1.000e+04
          1       133       106    839.93 1.000e+04
          1       133       107    838.86 1.000e+04
          1       133       108    837.94 1.000e+04
          1       133       109    836.54 1.000e+04
          1       133       110    835.17 1.000e+04
          1       133       111    833.66 1.000e+04
          1       133       112    832.01 1.000e+04
          1       133       113    830.11 1.000e+04
          1       133       114    829.73 1.000e+04
          1       133       115    830.05 1.000e+04
          1       134        99    865.97 1.000e+04
          1       134       100    858.16 1.000e+04
          1       134       101    853.53 1.000e+04
          1       134       102    859.12 1.000e+04
          1       134       103    845.65 1.000e+04
          1       134       104    840.39 1.000e+04
          1       134       105    838.48 1.000e+04
          1       134       106    837.37 1.000e+04
          1       134       107    836.57 1.000e+04
          1       134       108    835.90 1.000e+04
          1       134       109    834.86 1.000e+04
          1       134       110    833.76 1.000e+04
          1       134       111    832.44 1.000e+04
          1       134       112    831.31 1.000e+04
          1       134       113    829.95 1.000e+04
          1       134       114    829.89 1.000e+04
          1       135        98    860.61 1.000e+04
          1       135        99    856.88 1.000e+04
          1       135       100    852.85 1.000e+04
          1       135       101    849.65 1.000e+04
          1       135       102    853.63 1.000e+04
          1       135       103    842.49 1.000e+04
          1       135       104    838.15 1.000e+04
          1       135       105    836.64 1.000e+04
          1       135       106    834.99 1.000e+04
          1       135       107    834.36 1.000e+04
          1       135       108    833.77 1.000e+04
          1       135       109    833.04 1.000e+04
          1       135       110    832.29 1.000e+04
          1       135       111    831.54 1.000e+04
          1       135       112    830.69 1.000e+04
          1       135       113    830.27 1.000e+04
          1       135       114    829.77 1.000e+04
          1       136        97    857.63 1.000e+04
          1       136        98    856.54 1.000e+04
          1       136        99    852.63 1.000e+04
          1       136       100    849.15 1.000e+04
          1       136       101    846.80 1.000e+04
          1       136       102    853.45 1.000e+04
          1       136       103    843.15 1.000e+04
          1       136       104    835.92 1.000e+04
          1       136       105    835.22 1.000e+04
          1       136       106    833.99 1.000e+04
          1       136       107    833.15 1.000e+04
          1       136       108    832.52 1.000e+04
          1       136       109    832.04 1.000e+04
          1       136       110    831.66 1.000e+04
          1       136       111    831.16 1.000e+04
          1       136       112    830.45 1.000e+04
          1       136       113    830.47 1.000e+04
          1       136       114    829.97 1.000e+04
          1       137        96    856.42 1.000e+04
          1       137        97    853.56 1.000e+04
          1       137        98    853.02 1.000e+04
          1       137        99    850.89 1.000e+04
          1       137       100    847.64 1.000e+04
          1       137       101    845.77 1.000e+04
          1       137       102    862.58 1.000e+04
          1       137       103    850.99 1.000e+04
          1       137       104    836.89 1.000e+04
          1       137       105    835.42 1.000e+04
          1       137       106    833.83 1.000e+04
          1       137       107    832.81 1.000e+04
          1       137       108    832.21 1.000e+04
          1       137       109    831.75 1.000e+04
          1       137       110    831.16 1.000e+04
          1       137       111    830.60 1.000e+04
          1       137       112    830.53 1.000e+04
          1       137       113    830.20 1.000e+04
          1       137       114    830.21 1.000e+04
          1       138        95    859.74 1.000e+04
          1       138        96    854.88 1.000e+04
          1       138        97    851.97 1.000e+04
          1       138        98    849.57 1.000e+04
          1       138        99    847.93 1.000e+04
          1       138       100    845.74 1.000e+04
          1       138       101    843.38 1.000e+04
          1       138       102    843.59 1.000e+04
          1       138       103    844.80 1.000e+04
          1       138       104    837.60 1.000e+04
          1       138       105    835.96 1.000e+04
          1       138       106    834.39 1.000e+04
          1       138       107    833.12 1.000e+04
          1       138       108    832.35 1.000e+04
          1       138       109    831.68 1.000e+04
          1       138       110    831.18 1.000e+04
          1       138       111    830.71 1.000e+04
          1       138       112    830.64 1.000e+04
          1       138       113    830.29 1.000e+04
          1       138       114    830.47 1.000e+04
          1       139        94    866.83 1.000e+04
          1       139        95    856.31 1.000e+04
          1       139        96    852.79 1.000e+04
          1       139        97    849.21 1.000e+04
          1       139        98    847.72 1.000e+04
          1       139        99    846.11 1.000e+04
          1       139       100    844.28 1.000e+04
          1       139       101    842.33 1.000e+04
          1       139       102    840.66 1.000e+04
          1       139       103    839.11 1.000e+04
          1       139       104    837.61 1.000e+04
          1       139       105    835.78 1.000e+04
          1       139       106    834.08 1.000e+04
          1       139       107    833.10 1.000e+04
          1       139       108    832.55 1.000e+04
          1       139       109    831.82 1.000e+04
          1       139       110    831.27 1.000e+04
          1       139       111    831.02 1.000e+04
          1       139       112    830.82 1.000e+04
          1       139       113    830.76 1.000e+04
          1       140        93    886.15 1.000e+04
          1       140        94    861.72 1.000e+04
          1       140        95    852.74 1.000e+04
          1       140        96    849.72 1.000e+04
          1       140        97    846.74 1.000e+04
          1       140        98    845.62 1.000e+04
          1       140        99    844.66 1.000e+04
          1       140       100    843.46 1.000e+04
          1       140       101    841.83 1.000e+04
          1       140       102    840.12 1.000e+04
          1       140       103    838.53 1.000e+04
          1       140       104    836.88 1.000e+04
          1       140       105    834.94 1.000e+04
          1       140       106    833.62 1.000e+04
          1       140       107    832.89 1.000e+04
          1       140       108    832.22 1.000e+04
          1       140       109    831.91 1.000e+04
          1       140       110    831.46 1.000e+04
          1       140       111    831.03 1.000e+04
          1       140       112    831.04 1.000e+04
          1       140       113    830.77 1.000e+04
          1       141        92    897.51 1.000e+04
          1       141        93    870.77 1.000e+04
          1       141        94    853.62 1.000e+04
          1       141        95    848.36 1.000e+04
          1       141        96    846.56 1.000e+04
          1       141        97    844.63 1.000e+04
          1       141        98    843.70 1.000e+04
          1       141        99    842.95 1.000e+04
          1       141       100    842.15 1.000e+04
          1       141       101    841.01 1.000e+04
          1       141       102    839.55 1.000e+04
          1       141       103    837.93 1.000e+04
          1       141       104    836.08 1.000e+04
          1       141       105    834.32 1.000e+04
          1       141       106    833.33 1.000e+04
          1       141       107    832.76 1.000e+04
          1       141       108    832.23 1.000e+04
          1       141       109    831.81 1.000e+04
          1       141       110    831.45 1.000e+04
          1       141       111    831.07 1.000e+04
          1       141       112    831.19 1.000e+04
          1       141       113    830.84 1.000e+04
          1       142        91    867.58 1.000e+04
          1       142        92    869.31 1.000e+04
          1       142        93    856.17 1.000e+04
          1       142        94    849.40 1.000e+04
          1       142        95    845.55 1.000e+04
          1       142        96    843.52 1.000e+04
          1       142        97    842.39 1.000e+04
          1       142        98    841.85 1.000e+04
          1       142        99    841.37 1.000e+04
          1       142       100    840.85 1.000e+04
          1       142       101    839.87 1.000e+04
          1       142       102    838.78 1.000e+04
          1       142       103    836.90 1.000e+04
          1       142       104    835.31 1.000e+04
          1       142       105    834.18 1.000e+04
          1       142       106    833.79 1.000e+04
          1       142       107    833.06 1.000e+04
          1       142       108    832.35 1.000e+04
          1       142       109    831.79 1.000e+04
          1       142       110    831.23 1.000e+04
          1       142       111    831.19 1.000e+04
          1       142       112    831.34 1.000e+04
          1       142       113    830.89 1.000e+04
          1       143        90    859.90 1.000e+04
          1       143        91    860.39 1.000e+04
          1       143        92    857.83 1.000e+04
          1       143        93    852.12 1.000e+04
          1       143        94    848.14 1.000e+04
          1       143        95    844.47 1.000e+04
          1       143        96    841.60 1.000e+04
          1       143        97    840.29 1.000e+04
          1       143        98    839.83 1.000e+04
          1       143        99    839.68 1.000e+04
          1       143       100    839.38 1.000e+04
          1       143       101    838.64 1.000e+04
          1       143       102    837.57 1.000e+04
          1       143       103    835.98 1.000e+04
          1       143       104    834.67 1.000e+04
          1       143       105    834.23 1.000e+04
          1       143       106    833.84 1.000e+04
          1       143       107    833.19 1.000e+04
          1       143       108    832.56 1.000e+04
          1       143       109    831.67 1.000e+04
          1       143       110    831.29 1.000e+04
          1       143       111    831.33 1.000e+04
          1       143       112    831.22 1.000e+04
          1       143       113    831.25 1.000e+04
          1       144        89    858.41 1.000e+04
          1       144        90    855.68 1.000e+04
          1       144        91    855.17 1.000e+04
          1       144        92    854.17 1.000e+04
          1       144        93    850.48 1.000e+04
          1       144        94    846.87 1.000e+04
          1       144        95    843.38 1.000e+04
          1       144        96    841.00 1.000e+04
          1       144        97    839.32 1.000e+04
          1       144        98    838.14 1.000e+04
          1       144        99    837.94 1.000e+04
          1       144       100    837.54 1.000e+04
          1       144       101    837.08 1.000e+04
          1       144       102    836.36 1.000e+04
          1       144       103    835.16 1.000e+04
          1       144       104    834.48 1.000e+04
          1       144       105    834.18 1.000e+04
          1       144       106    833.85 1.000e+04
          1       144       107    833.20 1.000e+04
          1       144       108    832.77 1.000e+04
          1       144       109    832.23 1.000e+04
          1       144       110    831.58 1.000e+04
          1       144       111    831.50 1.000e+04
          1       144       112    831.17 1.000e+04
          1       145        89    858.18 1.000e+04
          1       145        90    854.70 1.000e+04
          1       145        91    852.11 1.000e+04
          1       145        92    850.84 1.000e+04
          1       145        93    848.19 1.000e+04
          1       145        94    845.16 1.000e+04
          1       145        95    843.14 1.000e+04
          1       145        96    841.29 1.000e+04
          1       145        97    839.65 1.000e+04
          1       145        98    838.06 1.000e+04
          1       145        99    837.56 1.000e+04
          1       145       100    837.01 1.000e+04
          1       145       101    836.31 1.000e+04
          1       145       102    835.78 1.000e+04
          1       145       103    835.16 1.000e+04
          1       145       104    834.50 1.000e+04
          1       145       105    833.92 1.000e+04
          1       145       106    833.26 1.000e+04
          1       145       107    832.80 1.000e+04
          1       145       108    832.25 1.000e+04
          1       145       109    831.87 1.000e+04
          1       145       110    831.52 1.000e+04
          1       145       111    831.28 1.000e+04
          1       145       112    831.59 1.000e+04
          1       146        88    857.40 1.000e+04
          1       146        89    854.84 1.000e+04
          1       146        90    851.74 1.000e+04
          1       146        91    849.65 1.000e+04
          1       146        92    848.54 1.000e+04
          1       146        93    846.76 1.000e+04
          1       146        94    844.98 1.000e+04
          1       146        95    843.28 1.000e+04
          1       146        96    841.78 1.000e+04
          1       146        97    839.90 1.000e+04
          1       146        98    838.53 1.000e+04
          1       146        99    837.85 1.000e+04
          1       146       100    837.23 1.000e+04
          1       146       101    836.59 1.000e+04
          1       146       102    835.89 1.000e+04
          1       146       103    835.25 1.000e+04
          1       146       104    834.35 1.000e+04
          1       146       105    833.38 1.000e+04
          1       146       106    832.82 1.000e+04
          1       146       107    832.47 1.000e+04
          1       146       108    832.20 1.000e+04
          1       146       109    831.95 1.000e+04
          1       146       110    831.92 1.000e+04
          1       146       111    831.68 1.000e+04
          1       146       112    831.22 1.000e+04
          1       147        87    856.02 1.000e+04
          1       147        88    853.50 1.000e+04
          1       147        89    851.33 1.000e+04
          1       147        90    848.82 1.000e+04
          1       147        91    847.12 1.000e+04
          1       147        92    846.87 1.000e+04
          1       147        93    845.81 1.000e+04
          1       147        94    844.35 1.000e+04
          1       147        95    842.79 1.000e+04
          1       147        96    840.82 1.000e+04
          1       147        97    839.62 1.000e+04
          1       147        98    838.75 1.000e+04
          1       147        99    837.93 1.000e+04
          1       147       100    837.26 1.000e+04
          1       147       101    836.38 1.000e+04
          1       147       102    835.62 1.000e+04
          1       147       103    834.90 1.000e+04
          1       147       104    834.22 1.000e+04
          1       147       105    833.65 1.000e+04
          1       147       106    833.25 1.000e+04
          1       147       107    832.87 1.000e+04
          1       147       108    832.66 1.000e+04
          1       147       109    832.46 1.000e+04
          1       147       110    832.21 1.000e+04
          1       147       111    831.97 1.000e+04
          1       147       112    831.73 1.000e+04
          1       148        86    859.51 1.000e+04
          1       148        87    854.70 1.000e+04
          1       148        88    850.98 1.000e+04
          1       148        89    849.00 1.000e+04
          1       148        90    847.18 1.000e+04
          1       148        91    845.85 1.000e+04
          1       148        92    845.16 1.000e+04
          1       148        93    844.36 1.000e+04
          1       148        94    843.08 1.000e+04
          1       148        95    841.41 1.000e+04
          1       148        96    840.24 1.000e+04
          1       148        97    839.52 1.000e+04
          1       148        98    838.62 1.000e+04
          1       148        99    837.64 1.000e+04
          1       148       100    836.93 1.000e+04
          1       148       101    836.43 1.000e+04
          1       148       102    835.85 1.000e+04
          1       148       103    835.27 1.000e+04
          1       148       104    834.66 1.000e+04
          1       148       105    834.06 1.000e+04
          1       148       106    833.55 1.000e+04
          1       148       107    833.07 1.000e+04
          1       148       108    832.79 1.000e+04
          1       148       109    832.41 1.000e+04
          1       148       110    832.23 1.000e+04
          1       148       111    831.97 1.000e+04
          1       148       112    832.13 1.000e+04
          1       149        84    869.46 1.000e+04
          1       149        85    862.73 1.000e+04
          1       149        86    857.67 1.000e+04
          1       149        87    853.82 1.000e+04
          1       149        88    850.83 1.000e+04
          1       149        89    848.66 1.000e+04
          1       149        90    846.91 1.000e+04
          1       149        91    845.69 1.000e+04
          1       149        92    844.40 1.000e+04
          1       149        93    843.25 1.000e+04
          1       149        94    842.01 1.000e+04
          1       149        95    841.15 1.000e+04
          1       149        96    840.66 1.000e+04
          1       149        97    839.85 1.000e+04
          1       149        98    838.89 1.000e+04
          1       149        99    837.95 1.000e+04
          1       149       100    837.38 1.000e+04
          1       149       101    836.77 1.000e+04
          1       149       102    836.12 1.000e+04
          1       149       103    835.43 1.000e+04
          1       149       104    834.80 1.000e+04
          1       149       105    834.30 1.000e+04
          1       149       106    833.84 1.000e+04
          1       149       107    833.22 1.000e+04
          1       149       108    832.99 1.000e+04
          1       149       109    832.73 1.000e+04
          1       149       110    832.57 1.000e+04
          1       149       111    832.47 1.000e+04
          1       149       112    832.40 1.000e+04
          1       150        83    870.46 1.000e+04
          1       150        84    864.89 1.000e+04
          1       150        85    860.01 1.000e+04
          1       150        86    857.90 1.000e+04
          1       150        87    856.55 1.000e+04
          1       150        88    852.93 1.000e+04
          1       150        89    848.71 1.000e+04
          1       150        90    846.36 1.000e+04
          1       150        91    844.94 1.000e+04
          1       150        92    843.86 1.000e+04
          1       150        93    843.00 1.000e+04
          1       150        94    842.18 1.000e+04
          1       150        95    841.49 1.000e+04
          1       150        96    840.77 1.000e+04
          1       150        97    839.97 1.000e+04
          1       150        98    839.26 1.000e+04
          1       150        99    838.59 1.000e+04
          1       150       100    837.90 1.000e+04
          1       150       101    837.21 1.000e+04
          1       150       102    836.25 1.000e+04
          1       150       103    835.77 1.000e+04
          1       150       104    835.34 1.000e+04
          1       150       105    834.93 1.000e+04
          1       150       106    834.21 1.000e+04
          1       150       107    833.58 1.000e+04
          1       150       108    833.60 1.000e+04
          1       150       109    833.53 1.000e+04
          1       150       110    833.16 1.000e+04
          1       150       111    832.85 1.000e+04
          1       150       112    832.55 1.000e+04
          1       151        86    859.41 1.000e+04
          1       151        88    852.18 1.000e+04
          1       151        89    852.11 1.000e+04
          1       151        90    845.87 1.000e+04
          1       151        91    844.81 1.000e+04
          1       151        92    843.80 1.000e+04
          1       151        93    843.01 1.000e+04
          1       151        94    842.24 1.000e+04
          1       151        95    841.58 1.000e+04
          1       151        96    841.16 1.000e+04
          1       151        97    840.49 1.000e+04
          1       151        98    839.64 1.000e+04
          1       151        99    839.17 1.000e+04
          1       151       100    838.37 1.000e+04
          1       151       101    837.43 1.000e+04
          1       151       102    836.75 1.000e+04
          1       151       103    836.43 1.000e+04
          1       151       104    835.71 1.000e+04
          1       151       105    835.22 1.000e+04
          1       151       106    834.61 1.000e+04
          1       151       107    834.19 1.000e+04
          1       151       108    834.19 1.000e+04
          1       151       109    834.10 1.000e+04
          1       151       110    833.81 1.000e+04
          1       151       111    832.94 1.000e+04
          1       151       112    832.66 1.000e+04
          1       152        85    852.93 1.000e+04
          1       152        86    848.90 1.000e+04
          1       152        87    847.89 1.000e+04
          1       152        88    846.95 1.000e+04
          1       152        89    846.06 1.000e+04
          1       152        90    845.23 1.000e+04
          1       152        91    844.44 1.000e+04
          1       152        92    843.73 1.000e+04
          1       152        93    843.04 1.000e+04
          1       152        94    842.36 1.000e+04
          1       152        95    841.95 1.000e+04
          1       152        96    841.62 1.000e+04
          1       152        97    840.89 1.000e+04
          1       152        98    840.18 1.000e+04
          1       152        99    839.50 1.000e+04
          1       152       100    838.64 1.000e+04
          1       152       101    837.95 1.000e+04
          1       152       102    837.32 1.000e+04
          1       152       103    836.73 1.000e+04
          1       152       104    835.73 1.000e+04
          1       152       105    835.35 1.000e+04
          1       152       106    835.05 1.000e+04
          1       152       107    835.01 1.000e+04
          1       152       108    834.81 1.000e+04
          1       152       109    834.24 1.000e+04
          1       152       110    833.62 1.000e+04
          1       152       111    833.01 1.000e+04
          1       152       112    832.71 1.000e+04
          1       152       113    832.58 1.000e+04
          1       153        85    849.61 1.000e+04
          1       153        86    848.83 1.000e+04
          1       153        87    847.83 1.000e+04
          1       153        88    846.92 1.000e+04
          1       153        89    846.06 1.000e+04
          1       153        90    845.23 1.000e+04
          1       153        91    844.50 1.000e+04
          1       153        92    843.88 1.000e+04