pcf              									
* control data									
restart estimation             									
 61 4682 9 0 14          									
 5 5 single point 1 0 0        									
 10 -3 0.3 0.03 10         									
 10 10 0.001           									
0.1									
 -1 0.005 4 4 0.005 4        									
 1 1 1           									
* parameter groups									
 Conductivity	relative	0.01	0	switch	2	parabolic			
 Vert_Aniso	relative	0.01	0	switch	2	parabolic			
 Sy	relative	0.01	0	switch	2	parabolic			
 Ss	relative	0.01	0	switch	2	parabolic			
 MFR	relative	0.01	0	switch	2	parabolic			
 Ditches	relative	0.01	0	switch	2	parabolic			
 Streambed_K	relative	0.01	0	switch	2	parabolic			
 Chnl_Rough	relative	0.01	0	switch	2	parabolic			
 SWBM	relative	0.01	0	switch	2	parabolic			
* parameter data									
kx1	log	factor	1.94E+02	1.00E-07	1.00E+03	Conductivity	1	0	1
kx2	log	factor	7.44E+00	1.00E-07	1.00E+03	Conductivity	1	0	1
kx3	log	factor	1.03E+01	1.00E-07	1.00E+03	Conductivity	1	0	1
kx4	log	factor	1.59E+01	1.00E-07	1.00E+03	Conductivity	1	0	1
kx5	fixed	factor	1.00E+01	1.00E-07	1.00E+03	Conductivity	1	0	1
kx6	fixed	factor	3.00E+01	1.00E-07	1.00E+03	Conductivity	1	0	1
kx7	fixed	factor	1.00E+03	1.00E-07	1.10E+03	Conductivity	1	0	1
kx8	fixed	factor	3.00E+01	1.00E-07	1.00E+03	Conductivity	1	0	1
kx9	fixed	factor	6.00E+01	1.00E-07	1.00E+03	Conductivity	1	0	1
kvar1	fixed	factor	1.00E+02	0.99	1000	Vert_Aniso	1	0	1
kvar2	fixed	factor	1.00E+02	0.99	1000	Vert_Aniso	1	0	1
kvar3	fixed	factor	1.00E+02	0.99	1000	Vert_Aniso	1	0	1
kvar4	fixed	factor	1.00E+02	0.99	1000	Vert_Aniso	1	0	1
kvar5	fixed	factor	1.00E+02	0.99	1000	Vert_Aniso	1	0	1
kvar6	fixed	factor	1.00E+02	0.99	1000	Vert_Aniso	1	0	1
kvar7	fixed	factor	1.00E+00	0.99	1000	Vert_Aniso	1	0	1
kvar8	fixed	factor	1.00E+02	0.99	1000	Vert_Aniso	1	0	1
kvar9	fixed	factor	1.00E+02	0.99	1000	Vert_Aniso	1	0	1
sy1	log	factor	1.29E-01	0.01	0.35	Sy	1	0	1
sy2	fixed	factor	1.50E-01	0.01	0.35	Sy	1	0	1
sy3	log	factor	4.79E-02	0.01	0.35	Sy	1	0	1
sy4	fixed	factor	1.00E-01	0.01	0.35	Sy	1	0	1
sy5	fixed	factor	1.50E-01	0.01	0.35	Sy	1	0	1
sy6	fixed	factor	1.50E-01	0.01	0.35	Sy	1	0	1
sy7	fixed	factor	3.00E-01	0.01	0.35	Sy	1	0	1
sy8	fixed	factor	1.50E-01	0.01	0.35	Sy	1	0	1
sy9	fixed	factor	1.50E-01	0.01	0.35	Sy	1	0	1
ss1	fixed	factor	1.00E-05	1.00E-06	1.00E-04	Ss	1	0	1
ss2	fixed	factor	1.00E-05	1.00E-06	1.00E-04	Ss	1	0	1
ss3	fixed	factor	1.00E-05	1.00E-06	1.00E-04	Ss	1	0	1
ss4	fixed	factor	1.00E-05	1.00E-06	1.00E-04	Ss	1	0	1
ss5	fixed	factor	1.00E-05	1.00E-06	1.00E-04	Ss	1	0	1
ss6	fixed	factor	1.00E-05	1.00E-06	1.00E-04	Ss	1	0	1
ss7	fixed	factor	1.00E-05	1.00E-06	1.00E-04	Ss	1	0	1
ss8	fixed	factor	1.00E-05	1.00E-06	1.00E-04	Ss	1	0	1
ss9	fixed	factor	1.00E-05	1.00E-06	1.00E-04	Ss	1	0	1
MFR5	fixed	factor	2.00E+00	0.01	1.00E+03	MFR	1	0	1
MFR6	fixed	factor	6.00E+01	0.01	1.00E+03	MFR	1	0	1
MFR7	fixed	factor	7.00E+01	0.01	1.00E+03	MFR	1	0	1
MFR8	fixed	factor	1.50E+02	0.01	1.00E+03	MFR	1	0	1
MFR9	fixed	factor	5.00E+00	0.01	1.00E+03	MFR	1	0	1
MFR10	fixed	factor	2.00E+01	0.01	1.00E+03	MFR	1	0	1
MFR11	fixed	factor	9.00E+01	0.01	1.00E+03	MFR	1	0	1
FRMRSDitch	fixed	factor	9.00E+01	0.01	1.00E+03	Ditches	1	0	1
SVIDDitch	fixed	factor	3.00E+02	0.01	1.00E+03	Ditches	1	0	1
bedk1	fixed	factor	1.00E+01	1.00E-07	20	Streambed_K	1	0	1
bedk2	fixed	factor	1.00E+01	1.00E-07	20	Streambed_K	1	0	1
bedk3	fixed	factor	1.00E+01	1.00E-07	20	Streambed_K	1	0	1
rough1	fixed	factor	3.50E-02	0.01	0.06	Chnl_Rough	1	0	1
rough2	fixed	factor	3.50E-02	0.01	0.06	Chnl_Rough	1	0	1
rough3	fixed	factor	3.50E-02	0.01	0.06	Chnl_Rough	1	0	1
RD_Mult	log	factor	1.41E+00	5.00E-01	2.00E+00	SWBM	1	0	1
EIE_Flood	log	factor	7.24E-01	5.00E-01	8.00E-01	SWBM	1	0	1
EIE_WL_LU25	log	factor	1.00E+00	1.00E+00	1.20E+00	SWBM	1	0	1
EIE_CP_LU25	log	factor	1.16E+00	1.00E+00	1.20E+00	SWBM	1	0	1
EIE_WL_LU2	log	factor	8.47E-01	8.00E-01	1.00E+00	SWBM	1	0	1
EIE_CP_LU2	log	factor	8.67E-01	8.00E-01	1.00E+00	SWBM	1	0	1
kc_alf_mult	log	factor	1.05E+00	9.50E-01	1.05E+00	SWBM	1	0	1
kc_grn_mult	fixed	factor	1.00E+00	9.50E-01	1.05E+00	SWBM	1	0	1
kc_pst_mult	log	factor	1.05E+00	9.50E-01	1.05E+00	SWBM	1	0	1
kc_noirr	fixed	factor	6.00E-01	5.00E-01	8.00E-01	SWBM	1	0	1
* observation groups            									
 FortJLow             									
 FortJMedium             									
 FortJHigh             									
 SV_Heads             									
 QV_Heads             									
 ASLow             									
 ASMedium             									
 ASHigh             									
 BYLow             									
 BYMedium             									
 BYHigh             									
 LSLow             									
 LSMedium             									
 LSHigh             									
* observation data									
FortJ4 61164 1.63E-04 FortJLow           									
FortJ6 66058 1.51E-04 FortJLow           									
FortJ9 66058 1.51E-04 FortJLow           									
FortJ23 78291 1.28E-04 FortJLow           									
FortJ28 85630 1.17E-04 FortJLow           									
FortJ33 1.05E+05 9.51E-05 FortJLow           									
FortJ38 1.30E+05 7.71E-05 FortJLow           									
FortJ43 1.32E+05 7.57E-05 FortJLow           									
FortJ53 1.30E+05 7.71E-05 FortJLow           									
FortJ64 1.47E+05 6.81E-05 FortJLow           									
FortJ82 1.32E+05 7.57E-05 FortJLow           									
FortJ84 1.39E+05 7.17E-05 FortJLow           									
FortJ96 1.39E+05 7.17E-05 FortJLow           									
FortJ98 1.39E+05 7.17E-05 FortJLow           									
FortJ99 1.49E+05 6.70E-05 FortJLow           									
FortJ101 1.57E+05 6.39E-05 FortJLow           									
FortJ102 1.64E+05 6.10E-05 FortJLow           									
FortJ103 1.64E+05 6.10E-05 FortJLow           									
FortJ106 8.81E+05 5.68E-06 FortJMedium           									
FortJ123 2.42E+05 4.13E-05 FortJLow           									
FortJ128 1.85E+06 2.70E-06 FortJMedium           									
FortJ129 1.37E+06 3.66E-06 FortJMedium           									
FortJ133 5.73E+05 8.73E-06 FortJMedium           									
FortJ170 6.19E+05 8.08E-06 FortJMedium           									
FortJ174 5.80E+05 8.62E-06 FortJMedium           									
FortJ183 6.34E+05 7.89E-06 FortJMedium           									
FortJ187 6.97E+05 7.17E-06 FortJMedium           									
FortJ197 6.63E+05 7.54E-06 FortJMedium           									
FortJ202 6.09E+05 8.21E-06 FortJMedium           									
FortJ204 6.21E+05 8.05E-06 FortJMedium           									
FortJ213 7.80E+05 6.41E-06 FortJMedium           									
FortJ216 8.20E+05 6.10E-06 FortJMedium           									
FortJ219 1.20E+06 4.18E-06 FortJMedium           									
FortJ235 1.51E+06 3.30E-06 FortJMedium           									
FortJ243 1.05E+06 4.75E-06 FortJMedium           									
FortJ245 9.88E+05 5.06E-06 FortJMedium           									
FortJ253 7.76E+05 6.45E-06 FortJMedium           									
FortJ255 7.49E+05 6.68E-06 FortJMedium           									
FortJ256 6.92E+05 7.22E-06 FortJMedium           									
FortJ281 1.17E+05 8.52E-05 FortJLow           									
FortJ287 61164 1.63E-04 FortJLow           									
FortJ288 68504 1.46E-04 FortJLow           									
FortJ292 70951 1.41E-04 FortJLow           									
FortJ294 73397 1.36E-04 FortJLow           									
FortJ301 61164 1.63E-04 FortJLow           									
FortJ310 39145 2.55E-04 FortJLow           									
FortJ311 36699 2.72E-04 FortJLow           									
FortJ319 29359 3.41E-04 FortJLow           									
FortJ332 26912 3.72E-04 FortJLow           									
FortJ335 23487 4.26E-04 FortJLow           									
FortJ338 24466 4.09E-04 FortJLow           									
FortJ339 23243 4.30E-04 FortJLow           									
FortJ340 24466 4.09E-04 FortJLow           									
FortJ343 29359 3.41E-04 FortJLow           									
FortJ351 24466 4.09E-04 FortJLow           									
FortJ357 34252 2.92E-04 FortJLow           									
FortJ362 26912 3.72E-04 FortJLow           									
FortJ365 26912 3.72E-04 FortJLow           									
FortJ367 31806 3.14E-04 FortJLow           									
FortJ368 36699 2.72E-04 FortJLow           									
FortJ370 46485 2.15E-04 FortJLow           									
FortJ371 51378 1.95E-04 FortJLow           									
FortJ372 53825 1.86E-04 FortJLow           									
FortJ373 53825 1.86E-04 FortJLow           									
FortJ379 44038 2.27E-04 FortJLow           									
FortJ384 36699 2.72E-04 FortJLow           									
FortJ386 39145 2.55E-04 FortJLow           									
FortJ396 39145 2.55E-04 FortJLow           									
FortJ397 36699 2.72E-04 FortJLow           									
FortJ402 39145 2.55E-04 FortJLow           									
FortJ403 44038 2.27E-04 FortJLow           									
FortJ404 48932 2.04E-04 FortJLow           									
FortJ405 51378 1.95E-04 FortJLow           									
FortJ406 53825 1.86E-04 FortJLow           									
FortJ414 1.13E+05 8.89E-05 FortJLow           									
FortJ430 1.61E+05 6.19E-05 FortJLow           									
FortJ438 3.69E+05 1.35E-05 FortJMedium           									
FortJ440 2.94E+05 1.70E-05 FortJMedium           									
FortJ451 2.37E+05 4.21E-05 FortJLow           									
FortJ454 2.20E+05 4.54E-05 FortJLow           									
FortJ460 2.08E+05 4.81E-05 FortJLow           									
FortJ461 2.23E+05 4.49E-05 FortJLow           									
FortJ462 2.47E+05 2.02E-05 FortJMedium           									
FortJ464 3.89E+05 1.29E-05 FortJMedium           									
FortJ472 2.67E+05 1.87E-05 FortJMedium           									
FortJ514 1.33E+06 3.76E-06 FortJMedium           									
FortJ522 1.20E+06 4.15E-06 FortJMedium           									
FortJ531 8.20E+05 6.10E-06 FortJMedium           									
FortJ545 7.66E+05 6.53E-06 FortJMedium           									
FortJ551 1.25E+06 3.99E-06 FortJMedium           									
FortJ560 2.50E+06 1.00E-06 FortJHigh           									
FortJ564 2.24E+06 2.24E-06 FortJMedium           									
FortJ578 2.03E+06 2.47E-06 FortJMedium           									
FortJ581 1.40E+06 3.58E-06 FortJMedium           									
FortJ585 1.39E+06 3.59E-06 FortJMedium           									
FortJ593 7.83E+05 6.39E-06 FortJMedium           									
FortJ597 7.32E+05 6.83E-06 FortJMedium           									
FortJ611 3.65E+05 1.37E-05 FortJMedium           									
FortJ616 2.42E+05 4.13E-05 FortJLow           									
FortJ617 2.06E+05 4.87E-05 FortJLow           									
FortJ618 1.98E+05 5.05E-05 FortJLow           									
FortJ622 1.27E+05 7.86E-05 FortJLow           									
FortJ627 1.39E+05 7.17E-05 FortJLow           									
FortJ639 1.54E+05 6.49E-05 FortJLow           									
FortJ640 1.88E+05 5.31E-05 FortJLow           									
FortJ641 2.13E+05 4.70E-05 FortJLow           									
FortJ642 2.13E+05 4.70E-05 FortJLow           									
FortJ645 2.01E+05 4.98E-05 FortJLow           									
FortJ648 1.59E+05 6.29E-05 FortJLow           									
FortJ649 1.49E+05 6.70E-05 FortJLow           									
FortJ650 1.37E+05 7.30E-05 FortJLow           									
FortJ651 1.35E+05 7.43E-05 FortJLow           									
FortJ667 34252 2.92E-04 FortJLow           									
FortJ673 24466 4.09E-04 FortJLow           									
FortJ675 22264 4.49E-04 FortJLow           									
FortJ676 20062 4.98E-04 FortJLow           									
FortJ677 20062 4.98E-04 FortJLow           									
FortJ678 19328 5.17E-04 FortJLow           									
FortJ679 18594 5.38E-04 FortJLow           									
FortJ680 17615 5.68E-04 FortJLow           									
FortJ681 18105 5.52E-04 FortJLow           									
FortJ684 17860 5.60E-04 FortJLow           									
FortJ685 17371 5.76E-04 FortJLow           									
FortJ691 15658 6.39E-04 FortJLow           									
FortJ698 19328 5.17E-04 FortJLow           									
FortJ703 23732 4.21E-04 FortJLow           									
FortJ704 24466 4.09E-04 FortJLow           									
FortJ705 29359 3.41E-04 FortJLow           									
FortJ708 41592 2.40E-04 FortJLow           									
FortJ709 48932 2.04E-04 FortJLow           									
FortJ711 48932 2.04E-04 FortJLow           									
FortJ717 63611 1.57E-04 FortJLow           									
FortJ721 73397 1.36E-04 FortJLow           									
FortJ728 97863 1.02E-04 FortJLow           									
FortJ732 1.22E+05 8.17E-05 FortJLow           									
FortJ737 1.25E+05 8.01E-05 FortJLow           									
FortJ740 1.42E+05 7.05E-05 FortJLow           									
FortJ771 1.57E+05 6.39E-05 FortJLow           									
FortJ772 1.52E+05 6.59E-05 FortJLow           									
FortJ775 1.20E+05 8.34E-05 FortJLow           									
FortJ784 1.83E+05 5.45E-05 FortJLow           									
FortJ796 1.66E+05 6.01E-05 FortJLow           									
FortJ799 1.69E+05 5.92E-05 FortJLow           									
FortJ804 1.03E+06 4.85E-06 FortJMedium           									
FortJ809 4.48E+05 1.12E-05 FortJMedium           									
FortJ815 3.16E+05 1.58E-05 FortJMedium           									
FortJ827 3.84E+05 1.30E-05 FortJMedium           									
FortJ838 4.40E+05 1.14E-05 FortJMedium           									
FortJ857 1.03E+06 4.83E-06 FortJMedium           									
FortJ860 1.69E+06 2.96E-06 FortJMedium           									
FortJ867 1.75E+06 2.85E-06 FortJMedium           									
FortJ869 1.50E+06 3.32E-06 FortJMedium           									
FortJ887 1.57E+06 3.18E-06 FortJMedium           									
FortJ888 1.63E+06 3.07E-06 FortJMedium           									
FortJ891 2.64E+06 9.46E-07 FortJHigh           									
FortJ893 3.91E+06 6.39E-07 FortJHigh           									
FortJ899 1.37E+07 1.83E-07 FortJHigh           									
FortJ903 5.80E+06 4.31E-07 FortJHigh           									
FortJ905 6.95E+06 3.60E-07 FortJHigh           									
FortJ914 3.55E+06 7.05E-07 FortJHigh           									
FortJ920 3.11E+06 8.05E-07 FortJHigh           									
FortJ923 3.25E+06 7.68E-07 FortJHigh           									
FortJ946 4.92E+06 5.08E-07 FortJHigh           									
FortJ952 3.35E+06 7.46E-07 FortJHigh           									
FortJ960 4.40E+06 5.68E-07 FortJHigh           									
FortJ966 4.13E+06 6.05E-07 FortJHigh           									
FortJ974 1.12E+07 2.23E-07 FortJHigh           									
FortJ981 4.13E+06 6.05E-07 FortJHigh           									
FortJ983 3.55E+06 7.05E-07 FortJHigh           									
FortJ986 3.11E+06 8.05E-07 FortJHigh           									
FortJ992 2.72E+06 9.21E-07 FortJHigh           									
FortJ1013 6.43E+05 7.77E-06 FortJMedium           									
FortJ1016 5.50E+05 9.08E-06 FortJMedium           									
FortJ1025 3.33E+05 1.50E-05 FortJMedium           									
FortJ1027 3.43E+05 1.46E-05 FortJMedium           									
FortJ1039 2.30E+05 4.35E-05 FortJLow           									
FortJ1040 2.06E+05 4.87E-05 FortJLow           									
FortJ1041 1.71E+05 5.84E-05 FortJLow           									
FortJ1043 1.54E+05 6.49E-05 FortJLow           									
FortJ1046 1.32E+05 7.57E-05 FortJLow           									
FortJ1050 97863 1.02E-04 FortJLow           									
FortJ1058 1.25E+05 8.01E-05 FortJLow           									
FortJ1067 1.00E+05 9.97E-05 FortJLow           									
FortJ1069 1.08E+05 9.29E-05 FortJLow           									
FortJ1070 1.10E+05 9.08E-05 FortJLow           									
FortJ1071 1.08E+05 9.29E-05 FortJLow           									
FortJ1076 1.15E+05 8.70E-05 FortJLow           									
FortJ1078 1.15E+05 8.70E-05 FortJLow           									
FortJ1082 1.15E+05 8.70E-05 FortJLow           									
FortJ1086 1.27E+05 7.86E-05 FortJLow           									
FortJ1090 1.30E+05 7.71E-05 FortJLow           									
FortJ1093 1.22E+05 8.17E-05 FortJLow           									
FortJ1098 1.22E+05 8.17E-05 FortJLow           									
FortJ1100 1.17E+05 8.52E-05 FortJLow           									
FortJ1101 1.20E+05 8.34E-05 FortJLow           									
FortJ1108 1.35E+05 7.43E-05 FortJLow           									
FortJ1115 1.54E+05 6.49E-05 FortJLow           									
FortJ1117 1.69E+05 5.92E-05 FortJLow           									
FortJ1127 1.79E+05 5.60E-05 FortJLow           									
FortJ1131 1.76E+05 5.68E-05 FortJLow           									
FortJ1137 1.76E+05 5.68E-05 FortJLow           									
FortJ1140 1.81E+05 5.52E-05 FortJLow           									
FortJ1142 1.81E+05 5.52E-05 FortJLow           									
FortJ1147 1.91E+05 5.24E-05 FortJLow           									
FortJ1154 1.91E+05 5.24E-05 FortJLow           									
FortJ1158 2.28E+05 4.39E-05 FortJLow           									
FortJ1180 3.08E+05 1.62E-05 FortJMedium           									
FortJ1185 2.89E+05 1.73E-05 FortJMedium           									
FortJ1198 4.72E+05 1.06E-05 FortJMedium           									
FortJ1199 4.43E+05 1.13E-05 FortJMedium           									
FortJ1207 3.55E+05 1.41E-05 FortJMedium           									
FortJ1209 3.55E+05 1.41E-05 FortJMedium           									
FortJ1223 4.94E+05 1.01E-05 FortJMedium           									
FortJ1226 4.87E+05 1.03E-05 FortJMedium           									
FortJ1229 5.02E+05 9.97E-06 FortJMedium           									
FortJ1231 5.24E+05 9.55E-06 FortJMedium           									
FortJ1255 9.25E+05 5.41E-06 FortJMedium           									
FortJ1268 8.15E+05 6.14E-06 FortJMedium           									
FortJ1278 6.63E+05 7.54E-06 FortJMedium           									
FortJ1281 6.17E+05 8.11E-06 FortJMedium           									
FortJ1296 1.11E+06 4.51E-06 FortJMedium           									
FortJ1310 7.05E+05 7.10E-06 FortJMedium           									
FortJ1311 6.97E+05 7.17E-06 FortJMedium           									
FortJ1312 7.46E+05 6.70E-06 FortJMedium           									
FortJ1315 1.78E+06 2.81E-06 FortJMedium           									
FortJ1316 2.03E+06 2.47E-06 FortJMedium           									
FortJ1317 1.95E+06 2.56E-06 FortJMedium           									
FortJ1325 1.06E+06 4.71E-06 FortJMedium           									
FortJ1333 8.39E+05 5.96E-06 FortJMedium           									
FortJ1341 5.97E+05 8.38E-06 FortJMedium           									
FortJ1342 5.65E+05 8.85E-06 FortJMedium           									
FortJ1351 2.94E+05 1.70E-05 FortJMedium           									
FortJ1354 2.50E+05 2.00E-05 FortJMedium           									
FortJ1357 1.96E+05 5.11E-05 FortJLow           									
FortJ1363 1.10E+05 9.08E-05 FortJLow           									
FortJ1373 44038 2.27E-04 FortJLow           									
FortJ1375 39145 2.55E-04 FortJLow           									
FortJ1384 31806 3.14E-04 FortJLow           									
FortJ1386 29359 3.41E-04 FortJLow           									
FortJ1397 22264 4.49E-04 FortJLow           									
FortJ1410 16147 6.19E-04 FortJLow           									
FortJ1414 15169 6.59E-04 FortJLow           									
FortJ1415 15903 6.29E-04 FortJLow           									
FortJ1425 11010 9.08E-04 FortJLow           									
FortJ1431 10765 9.29E-04 FortJLow           									
FortJ1432 11010 9.08E-04 FortJLow           									
FortJ1435 11254 8.89E-04 FortJLow           									
FortJ1438 11010 9.08E-04 FortJLow           									
FortJ1439 10765 9.29E-04 FortJLow           									
FortJ1447 10765 9.29E-04 FortJLow           									
FortJ1449 10276 9.73E-04 FortJLow           									
FortJ1453 12233 8.17E-04 FortJLow           									
FortJ1455 14924 6.70E-04 FortJLow           									
FortJ1461 11988 8.34E-04 FortJLow           									
FortJ1462 13946 7.17E-04 FortJLow           									
FortJ1463 16637 6.01E-04 FortJLow           									
FortJ1464 17371 5.76E-04 FortJLow           									
FortJ1465 17371 5.76E-04 FortJLow           									
FortJ1468 21041 4.75E-04 FortJLow           									
FortJ1471 24466 4.09E-04 FortJLow           									
FortJ1478 24466 4.09E-04 FortJLow           									
FortJ1480 24466 4.09E-04 FortJLow           									
FortJ1482 24466 4.09E-04 FortJLow           									
FortJ1484 24466 4.09E-04 FortJLow           									
FortJ1489 26912 3.72E-04 FortJLow           									
FortJ1497 23976 4.17E-04 FortJLow           									
FortJ1499 22264 4.49E-04 FortJLow           									
FortJ1500 21775 4.59E-04 FortJLow           									
FortJ1501 29359 3.41E-04 FortJLow           									
FortJ1502 24466 4.09E-04 FortJLow           									
FortJ1504 23732 4.21E-04 FortJLow           									
FortJ1505 23732 4.21E-04 FortJLow           									
FortJ1507 26912 3.72E-04 FortJLow           									
FortJ1516 29359 3.41E-04 FortJLow           									
FortJ1519 29359 3.41E-04 FortJLow           									
FortJ1529 1.10E+05 9.08E-05 FortJLow           									
FortJ1530 90523 1.10E-04 FortJLow           									
FortJ1531 80737 1.24E-04 FortJLow           									
FortJ1533 78291 1.28E-04 FortJLow           									
FortJ1534 80737 1.24E-04 FortJLow           									
FortJ1536 78291 1.28E-04 FortJLow           									
FortJ1537 78291 1.28E-04 FortJLow           									
FortJ1547 1.66E+05 6.01E-05 FortJLow           									
FortJ1562 1.83E+07 1.36E-07 FortJHigh           									
FortJ1563 1.35E+07 1.86E-07 FortJHigh           									
FortJ1599 2.31E+06 2.16E-06 FortJMedium           									
FortJ1601 2.09E+06 2.39E-06 FortJMedium           									
FortJ1614 2.64E+06 9.46E-07 FortJHigh           									
FortJ1621 6.78E+06 3.69E-07 FortJHigh           									
FortJ1623 1.14E+07 2.19E-07 FortJHigh           									
FortJ1627 9.47E+06 2.64E-07 FortJHigh           									
FortJ1631 8.66E+06 2.89E-07 FortJHigh           									
FortJ1635 6.34E+06 3.95E-07 FortJHigh           									
FortJ1640 3.60E+06 6.95E-07 FortJHigh           									
FortJ1645 2.98E+06 8.38E-07 FortJHigh           									
FortJ1647 2.89E+06 8.66E-07 FortJHigh           									
FortJ1656 5.58E+06 4.48E-07 FortJHigh           									
FortJ1665 2.76E+06 9.04E-07 FortJHigh           									
FortJ1675 5.73E+06 4.37E-07 FortJHigh           									
FortJ1677 4.62E+06 5.41E-07 FortJHigh           									
FortJ1678 4.48E+06 5.58E-07 FortJHigh           									
FortJ1680 3.74E+06 6.68E-07 FortJHigh           									
FortJ1683 3.77E+06 6.64E-07 FortJHigh           									
FortJ1684 3.57E+06 7.00E-07 FortJHigh           									
FortJ1692 4.23E+06 5.91E-07 FortJHigh           									
FortJ1694 5.26E+06 4.75E-07 FortJHigh           									
FortJ1698 5.09E+06 4.91E-07 FortJHigh           									
FortJ1704 5.24E+06 4.77E-07 FortJHigh           									
FortJ1708 4.89E+06 5.11E-07 FortJHigh           									
FortJ1709 4.58E+06 5.46E-07 FortJHigh           									
FortJ1713 2.52E+06 9.92E-07 FortJHigh           									
FortJ1714 2.54E+06 9.83E-07 FortJHigh           									
FortJ1724 2.64E+06 9.46E-07 FortJHigh           									
FortJ1731 3.11E+06 8.05E-07 FortJHigh           									
FortJ1734 2.50E+06 1.00E-06 FortJHigh           									
FortJ1739 1.73E+06 2.89E-06 FortJMedium           									
FortJ1746 1.41E+06 3.55E-06 FortJMedium           									
FortJ1753 1.17E+06 4.28E-06 FortJMedium           									
FortJ1775 3.06E+05 1.63E-05 FortJMedium           									
FortJ1776 3.08E+05 1.62E-05 FortJMedium           									
FortJ1780 2.13E+05 4.70E-05 FortJLow           									
FortJ1782 1.86E+05 5.38E-05 FortJLow           									
FortJ1793 1.03E+05 9.73E-05 FortJLow           									
FortJ1799 92970 1.08E-04 FortJLow           									
FortJ1800 95417 1.05E-04 FortJLow           									
FortJ1804 1.00E+05 9.97E-05 FortJLow           									
FortJ1809 1.30E+05 7.71E-05 FortJLow           									
FortJ1811 1.30E+05 7.71E-05 FortJLow           									
FortJ1814 1.27E+05 7.86E-05 FortJLow           									
FortJ1823 1.27E+05 7.86E-05 FortJLow           									
FortJ1827 1.27E+05 7.86E-05 FortJLow           									
FortJ1828 1.27E+05 7.86E-05 FortJLow           									
FortJ1829 1.27E+05 7.86E-05 FortJLow           									
FortJ1830 1.35E+05 7.43E-05 FortJLow           									
FortJ1838 1.49E+05 6.70E-05 FortJLow           									
FortJ1841 1.54E+05 6.49E-05 FortJLow           									
FortJ1857 1.98E+05 5.05E-05 FortJLow           									
FortJ1858 2.03E+05 4.92E-05 FortJLow           									
FortJ1863 2.06E+05 4.87E-05 FortJLow           									
FortJ1864 2.06E+05 4.87E-05 FortJLow           									
FortJ1865 2.06E+05 4.87E-05 FortJLow           									
FortJ1869 2.10E+05 4.75E-05 FortJLow           									
FortJ1877 2.06E+05 4.87E-05 FortJLow           									
FortJ1881 2.10E+05 4.75E-05 FortJLow           									
FortJ1884 2.20E+05 4.54E-05 FortJLow           									
FortJ1887 2.42E+05 4.13E-05 FortJLow           									
FortJ1888 3.30E+05 1.51E-05 FortJMedium           									
FortJ1896 5.92E+05 8.44E-06 FortJMedium           									
FortJ1904 2.91E+06 8.59E-07 FortJHigh           									
FortJ1906 2.03E+06 2.47E-06 FortJMedium           									
FortJ1923 2.47E+06 1.01E-06 FortJHigh           									
FortJ1924 2.17E+06 2.30E-06 FortJMedium           									
FortJ1939 4.58E+06 5.46E-07 FortJHigh           									
FortJ1957 1.03E+07 2.43E-07 FortJHigh           									
FortJ1960 8.51E+06 2.94E-07 FortJHigh           									
FortJ1981 3.52E+06 7.10E-07 FortJHigh           									
FortJ1985 3.57E+06 7.00E-07 FortJHigh           									
FortJ1989 4.53E+06 5.52E-07 FortJHigh           									
FortJ1990 4.62E+06 5.41E-07 FortJHigh           									
FortJ1993 3.62E+06 6.90E-07 FortJHigh           									
FortJ1997 3.67E+06 6.81E-07 FortJHigh           									
FortJ2009 2.59E+06 9.64E-07 FortJHigh           									
FortJ2015 2.89E+06 8.66E-07 FortJHigh           									
FortJ2017 3.84E+06 6.51E-07 FortJHigh           									
FortJ2019 4.16E+06 6.01E-07 FortJHigh           									
FortJ2021 3.23E+06 7.74E-07 FortJHigh           									
FortJ2022 2.91E+06 8.59E-07 FortJHigh           									
FortJ2024 2.81E+06 8.89E-07 FortJHigh           									
FortJ2027 2.86E+06 8.73E-07 FortJHigh           									
FortJ2029 2.57E+06 9.73E-07 FortJHigh           									
FortJ2031 2.47E+06 1.01E-06 FortJHigh           									
FortJ2041 4.09E+06 6.12E-07 FortJHigh           									
FortJ2043 3.33E+06 7.51E-07 FortJHigh           									
FortJ2044 3.06E+06 8.17E-07 FortJHigh           									
FortJ2050 2.18E+06 2.29E-06 FortJMedium           									
FortJ2060 4.40E+06 5.68E-07 FortJHigh           									
FortJ2064 4.89E+06 5.11E-07 FortJHigh           									
FortJ2070 3.21E+06 7.80E-07 FortJHigh           									
FortJ2072 2.89E+06 8.66E-07 FortJHigh           									
FortJ2073 2.74E+06 9.12E-07 FortJHigh           									
FortJ2076 2.25E+06 2.22E-06 FortJMedium           									
FortJ2082 1.49E+06 3.36E-06 FortJMedium           									
FortJ2111 3.74E+05 1.34E-05 FortJMedium           									
FortJ2112 3.62E+05 1.38E-05 FortJMedium           									
FortJ2114 3.35E+05 1.49E-05 FortJMedium           									
FortJ2117 3.99E+05 1.25E-05 FortJMedium           									
FortJ2121 3.16E+05 1.58E-05 FortJMedium           									
FortJ2125 2.37E+05 4.21E-05 FortJLow           									
FortJ2131 1.61E+05 6.19E-05 FortJLow           									
FortJ2133 1.39E+05 7.17E-05 FortJLow           									
FortJ2134 1.30E+05 7.71E-05 FortJLow           									
FortJ2135 1.25E+05 8.01E-05 FortJLow           									
FortJ2137 1.10E+05 9.08E-05 FortJLow           									
FortJ2138 1.08E+05 9.29E-05 FortJLow           									
FortJ2139 97863 1.02E-04 FortJLow           									
FortJ2142 78291 1.28E-04 FortJLow           									
FortJ2145 88077 1.14E-04 FortJLow           									
FortJ2146 78291 1.28E-04 FortJLow           									
FortJ2148 70951 1.41E-04 FortJLow           									
FortJ2156 51378 1.95E-04 FortJLow           									
FortJ2159 51378 1.95E-04 FortJLow           									
FortJ2162 56271 1.78E-04 FortJLow           									
FortJ2166 56271 1.78E-04 FortJLow           									
FortJ2171 56271 1.78E-04 FortJLow           									
FortJ2174 58718 1.70E-04 FortJLow           									
FortJ2186 85630 1.17E-04 FortJLow           									
FortJ2189 83184 1.20E-04 FortJLow           									
FortJ2192 80737 1.24E-04 FortJLow           									
FortJ2194 95417 1.05E-04 FortJLow           									
FortJ2195 97863 1.02E-04 FortJLow           									
FortJ2198 1.08E+05 9.29E-05 FortJLow           									
FortJ2200 1.10E+05 9.08E-05 FortJLow           									
FortJ2204 1.13E+05 8.89E-05 FortJLow           									
FortJ2220 2.25E+05 4.44E-05 FortJLow           									
FortJ2223 2.45E+05 2.04E-05 FortJMedium           									
FortJ2241 2.50E+06 1.00E-06 FortJHigh           									
FortJ2254 4.99E+06 5.01E-07 FortJHigh           									
FortJ2255 4.99E+06 5.01E-07 FortJHigh           									
FortJ2256 5.11E+06 4.89E-07 FortJHigh           									
FortJ2262 1.88E+07 1.33E-07 FortJHigh           									
FortJ2263 1.85E+07 1.35E-07 FortJHigh           									
FortJ2265 7.17E+06 3.49E-07 FortJHigh           									
FortJ2267 4.48E+06 5.58E-07 FortJHigh           									
FortJ2286 5.26E+07 4.75E-08 FortJHigh           									
FortJ2287 3.01E+07 8.31E-08 FortJHigh           									
FortJ2288 1.77E+07 1.42E-07 FortJHigh           									
FortJ2289 1.18E+07 2.11E-07 FortJHigh           									
FortJ2290 8.76E+06 2.85E-07 FortJHigh           									
FortJ2303 2.72E+06 9.21E-07 FortJHigh           									
FortJ2309 2.59E+06 9.64E-07 FortJHigh           									
FortJ2318 4.35E+06 5.74E-07 FortJHigh           									
FortJ2320 3.65E+06 6.86E-07 FortJHigh           									
FortJ2323 3.11E+06 8.05E-07 FortJHigh           									
FortJ2350 1.67E+06 3.00E-06 FortJMedium           									
FortJ2357 1.53E+06 3.26E-06 FortJMedium           									
FortJ2358 1.55E+06 3.22E-06 FortJMedium           									
FortJ2378 1.55E+06 3.22E-06 FortJMedium           									
FortJ2383 1.22E+06 4.09E-06 FortJMedium           									
FortJ2404 2.36E+06 2.12E-06 FortJMedium           									
FortJ2414 1.87E+06 2.67E-06 FortJMedium           									
FortJ2432 9.52E+05 5.25E-06 FortJMedium           									
FortJ2439 1.23E+06 4.05E-06 FortJMedium           									
FortJ2440 1.21E+06 4.15E-06 FortJMedium           									
FortJ2441 1.05E+06 4.74E-06 FortJMedium           									
FortJ2462 3.35E+05 1.49E-05 FortJMedium           									
FortJ2474 2.18E+05 4.59E-05 FortJLow           									
FortJ2475 2.08E+05 4.81E-05 FortJLow           									