# MODFLOW2000 Head Observation File
# Groundwater Vistas also writes drawdown targets here
  2197  0  0 500 -999
  1.0  1.0
A2 1  239  139  -39  0.0  0.250000  0.250000  0.000000  1.000000  1  1
  1
A21 213  10.000000  844.981700  1.000000  1.000000  1  1
A22 214  9.000000  844.497100  1.000000  1.000000  1  1
A23 215  10.000000  842.985300  1.000000  1.000000  1  1
A24 216  10.000000  842.278100  1.000000  1.000000  1  1
A25 217  12.000000  842.098300  1.000000  1.000000  1  1
A26 218  11.000000  842.497600  1.000000  1.000000  1  1
A27 219  11.000000  842.299500  1.000000  1.000000  1  1
A28 220  12.000000  842.192800  1.000000  1.000000  1  1
A29 221  13.000000  842.269000  1.000000  1.000000  1  1
A210 222  14.000000  842.180600  1.000000  1.000000  1  1
A211 223  10.000000  843.466900  1.000000  1.000000  1  1
A212 224  10.000000  843.171200  1.000000  1.000000  1  1
A213 225  22.000000  842.997500  1.000000  1.000000  1  1
A214 226  14.000000  842.378700  1.000000  1.000000  1  1
A215 227  13.000000  842.073900  1.000000  1.000000  1  1
A216 228  14.000000  841.263200  1.000000  1.000000  1  1
A217 229  1.000000  841.610600  1.000000  1.000000  1  1
A218 230  9.000000  841.817900  1.000000  1.000000  1  1
A219 231  1.000000  842.653000  1.000000  1.000000  1  1
A220 232  7.000000  843.591800  1.000000  1.000000  1  1
A221 233  4.000000  843.485100  1.000000  1.000000  1  1
A222 234  5.000000  843.344900  1.000000  1.000000  1  1
A223 235  6.000000  843.408900  1.000000  1.000000  1  1
A224 236  6.000000  843.619300  1.000000  1.000000  1  1
A225 237  8.000000  845.457200  1.000000  1.000000  1  1
A226 238  7.000000  844.606800  1.000000  1.000000  1  1
A227 239  7.000000  843.939300  1.000000  1.000000  1  1
A228 240  7.000000  842.592100  1.000000  1.000000  1  1
A229 241  7.000000  842.128800  1.000000  1.000000  1  1
A230 242  9.000000  842.180600  1.000000  1.000000  1  1
A231 243  13.000000  842.369600  1.000000  1.000000  1  1
A232 245  15.000000  844.271500  1.000000  1.000000  1  1
A233 246  14.000000  844.213600  1.000000  1.000000  1  1
A234 247  11.000000  845.179800  1.000000  1.000000  1  1
A235 248  16.000000  846.673400  1.000000  1.000000  1  1
A236 249  15.000000  846.325900  1.000000  1.000000  1  1
A237 250  11.000000  846.063800  1.000000  1.000000  1  1
A238 251  12.000000  845.253000  1.000000  1.000000  1  1
A239 252  15.000000  843.820400  1.000000  1.000000  1  1
A4 1  77  182  -17  0.0  -0.324200  0.250000  0.000000  1.000000  1  1
  1
A41 225  22.000000  863.657700  1.000000  1.000000  1  1
A42 228  14.000000  860.957200  1.000000  1.000000  1  1
A43 229  1.000000  859.933000  1.000000  1.000000  1  1
A44 230  9.000000  862.167200  1.000000  1.000000  1  1
A45 231  1.000000  862.429300  1.000000  1.000000  1  1
A46 232  7.000000  862.170300  1.000000  1.000000  1  1
A47 233  4.000000  862.630500  1.000000  1.000000  1  1
A48 234  5.000000  863.477800  1.000000  1.000000  1  1
A49 235  6.000000  864.050900  1.000000  1.000000  1  1
A410 237  7.000000  865.212200  1.000000  1.000000  1  1
A411 240  7.000000  861.365600  1.000000  1.000000  1  1
A412 241  7.000000  862.459800  1.000000  1.000000  1  1
A413 242  8.000000  862.712800  1.000000  1.000000  1  1
A414 243  13.000000  863.188300  1.000000  1.000000  1  1
A415 245  15.000000  865.318800  1.000000  1.000000  1  1
A416 246  14.000000  865.398100  1.000000  1.000000  1  1
A417 247  11.000000  865.617500  1.000000  1.000000  1  1
A4_1 1  207  90  -30  0.0  -0.250000  0.250000  0.000000  1.000000  1  1
  1
A4_11 186  28.000000  854.582700  1.000000  1.000000  1  1
A4_12 188  2.000000  854.674200  1.000000  1.000000  1  1
A4_13 189  1.000000  854.677200  1.000000  1.000000  1  1
A4_14 190  7.000000  854.341900  1.000000  1.000000  1  1
A4_15 191  3.000000  853.735400  1.000000  1.000000  1  1
A4_16 192  6.000000  852.607600  1.000000  1.000000  1  1
A4_17 193  6.000000  851.516400  1.000000  1.000000  1  1
A4_18 194  3.000000  850.708700  1.000000  1.000000  1  1
A4_19 195  8.000000  853.138000  1.000000  1.000000  1  1
A4_110 196  9.000000  854.549200  1.000000  1.000000  1  1
A4_111 197  6.000000  854.430300  1.000000  1.000000  1  1
A4_112 198  9.000000  854.613200  1.000000  1.000000  1  1
A4_113 199  4.000000  854.482100  1.000000  1.000000  1  1
A4_114 200  8.000000  854.719900  1.000000  1.000000  1  1
A4_115 201  4.000000  854.543100  1.000000  1.000000  1  1
A4_116 202  6.000000  853.933500  1.000000  1.000000  1  1
A4_117 203  4.000000  853.113600  1.000000  1.000000  1  1
A4_118 204  5.000000  851.775500  1.000000  1.000000  1  1
A4_119 205  4.000000  850.724000  1.000000  1.000000  1  1
A4_120 206  5.000000  851.159800  1.000000  1.000000  1  1
A4_121 207  9.000000  853.451900  1.000000  1.000000  1  1
A4_122 208  7.000000  854.756500  1.000000  1.000000  1  1
A4_123 209  12.000000  854.497400  1.000000  1.000000  1  1
A4_124 210  7.000000  854.457800  1.000000  1.000000  1  1
A4_125 211  7.000000  854.598000  1.000000  1.000000  1  1
A4_126 212  7.000000  854.905800  1.000000  1.000000  1  1
A4_127 213  10.000000  854.722900  1.000000  1.000000  1  1
A4_128 214  9.000000  854.454700  1.000000  1.000000  1  1
A4_129 215  10.000000  853.491500  1.000000  1.000000  1  1
A4_130 216  10.000000  852.248000  1.000000  1.000000  1  1
B3 1  152  93  -55  0.0  -0.250000  -0.382400  0.000000  1.000000  1  1
  1
B31 186  30.000000  842.315400  1.000000  1.000000  1  1
B32 188  3.000000  841.992300  1.000000  1.000000  1  1
B33 189  1.000000  841.690600  1.000000  1.000000  1  1
B34 190  7.000000  841.062700  1.000000  1.000000  1  1
B35 191  3.000000  840.535400  1.000000  1.000000  1  1
B36 192  6.000000  839.861800  1.000000  1.000000  1  1
B37 193  6.000000  839.215600  1.000000  1.000000  1  1
B38 194  3.000000  839.029600  1.000000  1.000000  1  1
B39 195  8.000000  839.541700  1.000000  1.000000  1  1
B310 196  9.000000  841.084000  1.000000  1.000000  1  1
B311 197  6.000000  840.995600  1.000000  1.000000  1  1
B312 198  9.000000  842.150800  1.000000  1.000000  1  1
B313 199  4.000000  841.946600  1.000000  1.000000  1  1
B314 200  9.000000  841.468000  1.000000  1.000000  1  1
B315 201  4.000000  841.498500  1.000000  1.000000  1  1
B316 202  6.000000  840.608500  1.000000  1.000000  1  1
B317 203  4.000000  840.239700  1.000000  1.000000  1  1
B318 204  5.000000  838.865100  1.000000  1.000000  1  1
B319 205  4.000000  838.237200  1.000000  1.000000  1  1
B320 206  5.000000  838.612100  1.000000  1.000000  1  1
B321 207  6.000000  839.200300  1.000000  1.000000  1  1
B322 208  7.000000  840.194000  1.000000  1.000000  1  1
B323 209  12.000000  841.166300  1.000000  1.000000  1  1
B324 210  7.000000  841.248600  1.000000  1.000000  1  1
B325 211  7.000000  841.757600  1.000000  1.000000  1  1
B326 212  7.000000  841.495500  1.000000  1.000000  1  1
B327 213  10.000000  841.385800  1.000000  1.000000  1  1
B328 214  9.000000  840.760900  1.000000  1.000000  1  1
B329 215  10.000000  840.117800  1.000000  1.000000  1  1
B330 216  10.000000  839.212500  1.000000  1.000000  1  1
B331 217  12.000000  838.941300  1.000000  1.000000  1  1
B332 219  12.000000  838.950400  1.000000  1.000000  1  1
B333 220  12.000000  839.669700  1.000000  1.000000  1  1
B334 221  15.000000  839.788600  1.000000  1.000000  1  1
B335 222  14.000000  840.084300  1.000000  1.000000  1  1
B336 223  13.000000  840.264100  1.000000  1.000000  1  1
B337 224  14.000000  840.309800  1.000000  1.000000  1  1
B338 226  15.000000  840.285400  1.000000  1.000000  1  1
B339 227  14.000000  839.380200  1.000000  1.000000  1  1
B340 228  14.000000  838.295100  1.000000  1.000000  1  1
B341 229  1.000000  838.328600  1.000000  1.000000  1  1
B342 230  9.000000  838.033000  1.000000  1.000000  1  1
B343 231  4.000000  837.609300  1.000000  1.000000  1  1
B344 232  9.000000  838.474900  1.000000  1.000000  1  1
B345 233  4.000000  839.791600  1.000000  1.000000  1  1
B346 234  5.000000  840.370800  1.000000  1.000000  1  1
B347 235  6.000000  841.102300  1.000000  1.000000  1  1
B348 236  6.000000  841.632600  1.000000  1.000000  1  1
B349 237  7.000000  841.309600  1.000000  1.000000  1  1
B350 238  7.000000  841.111400  1.000000  1.000000  1  1
B351 239  7.000000  840.770100  1.000000  1.000000  1  1
B352 240  9.000000  839.925800  1.000000  1.000000  1  1
B353 241  8.000000  839.465500  1.000000  1.000000  1  1
B354 242  9.000000  839.730700  1.000000  1.000000  1  1
B355 243  14.000000  840.465300  1.000000  1.000000  1  1
B9 1  187  68  -16  0.0  0.250000  -0.250000  0.000000  1.000000  1  1
  1
B91 226  15.000000  852.248300  1.000000  1.000000  1  1
B92 227  14.000000  850.450000  1.000000  1.000000  1  1
B93 228  14.000000  848.740100  1.000000  1.000000  1  1
B94 229  1.000000  849.895200  1.000000  1.000000  1  1
B95 230  9.000000  847.569600  1.000000  1.000000  1  1
B96 231  4.000000  847.185600  1.000000  1.000000  1  1
B97 232  9.000000  847.130700  1.000000  1.000000  1  1
B98 233  4.000000  849.663600  1.000000  1.000000  1  1
B99 234  5.000000  851.961800  1.000000  1.000000  1  1
B910 235  6.000000  853.626000  1.000000  1.000000  1  1
B911 236  6.000000  854.878700  1.000000  1.000000  1  1
B912 237  7.000000  855.305400  1.000000  1.000000  1  1
B913 238  7.000000  854.567800  1.000000  1.000000  1  1
B914 239  8.000000  853.671700  1.000000  1.000000  1  1
B915 240  9.000000  851.974000  1.000000  1.000000  1  1
B916 241  8.000000  850.882800  1.000000  1.000000  1  1
C11 1  124  136  -35  0.0  -0.250000  0.250000  0.000000  1.000000  1  1
  1
C111 217  12.000000  828.452200  1.000000  1.000000  1  1
C112 218  11.000000  828.421700  1.000000  1.000000  1  1
C113 219  11.000000  831.478900  1.000000  1.000000  1  1
C114 220  12.000000  831.759300  1.000000  1.000000  1  1
C115 221  13.000000  831.274600  1.000000  1.000000  1  1
C116 222  14.000000  830.814400  1.000000  1.000000  1  1
C117 223  10.000000  831.866000  1.000000  1.000000  1  1
C118 224  10.000000  830.826600  1.000000  1.000000  1  1
C119 225  22.000000  831.847700  1.000000  1.000000  1  1
C1110 226  15.000000  831.850700  1.000000  1.000000  1  1
C1111 227  14.000000  829.269100  1.000000  1.000000  1  1
C1112 228  14.000000  828.223600  1.000000  1.000000  1  1
C1113 229  1.000000  828.040700  1.000000  1.000000  1  1
C1114 230  9.000000  828.251000  1.000000  1.000000  1  1
C1115 231  1.000000  827.949300  1.000000  1.000000  1  1
C1116 232  7.000000  828.845400  1.000000  1.000000  1  1
C1117 233  4.000000  831.198400  1.000000  1.000000  1  1
C1118 234  5.000000  831.332600  1.000000  1.000000  1  1
C1119 235  6.000000  831.384400  1.000000  1.000000  1  1
C1120 236  5.000000  830.972900  1.000000  1.000000  1  1
C1121 237  7.000000  831.911700  1.000000  1.000000  1  1
C1122 238  7.000000  831.545900  1.000000  1.000000  1  1
C1123 239  7.000000  831.408800  1.000000  1.000000  1  1
C1124 240  7.000000  829.570800  1.000000  1.000000  1  1
C1125 241  7.000000  828.376000  1.000000  1.000000  1  1
C1126 242  8.000000  828.601600  1.000000  1.000000  1  1
C1127 243  13.000000  829.290400  1.000000  1.000000  1  1
C1128 245  15.000000  829.842100  1.000000  1.000000  1  1
C1129 246  14.000000  829.622600  1.000000  1.000000  1  1
C1130 247  11.000000  830.756500  1.000000  1.000000  1  1
C1131 248  12.000000  831.204500  1.000000  1.000000  1  1
C1132 249  13.000000  832.131100  1.000000  1.000000  1  1
C1133 250  11.000000  831.881200  1.000000  1.000000  1  1
C1134 251  12.000000  831.466700  1.000000  1.000000  1  1
C1135 252  13.000000  829.583000  1.000000  1.000000  1  1
C12 1  225  119  -3  0.0  -0.250000  0.250000  0.000000  1.000000  1  1
  1
C121 186  27.000000  839.380700  1.000000  1.000000  1  1
C122 193  6.000000  837.936000  1.000000  1.000000  1  1
C123 196  9.000000  839.685500  1.000000  1.000000  1  1
C26 1  154  69  -51  0.0  -0.250000  -0.250000  0.000000  1.000000  1  1
  1
C261 187  0.000000  865.208800  1.000000  1.000000  1  1
C262 188  3.000000  863.950000  1.000000  1.000000  1  1
C263 189  1.000000  863.709200  1.000000  1.000000  1  1
C264 190  7.000000  864.014000  1.000000  1.000000  1  1
C265 191  3.000000  860.929400  1.000000  1.000000  1  1
C266 192  6.000000  862.483900  1.000000  1.000000  1  1
C267 193  6.000000  862.486900  1.000000  1.000000  1  1
C268 194  3.000000  862.438100  1.000000  1.000000  1  1
C269 195  8.000000  862.386300  1.000000  1.000000  1  1
C2610 196  9.000000  863.462300  1.000000  1.000000  1  1
C2611 197  6.000000  864.779000  1.000000  1.000000  1  1
C2612 198  9.000000  864.931400  1.000000  1.000000  1  1
C2613 199  4.000000  864.785100  1.000000  1.000000  1  1
C2614 200  8.000000  864.876500  1.000000  1.000000  1  1
C2615 201  4.000000  864.364500  1.000000  1.000000  1  1
C2616 203  4.000000  862.465600  1.000000  1.000000  1  1
C2617 205  4.000000  862.395500  1.000000  1.000000  1  1
C2618 206  5.000000  862.261400  1.000000  1.000000  1  1
C2619 207  6.000000  862.380200  1.000000  1.000000  1  1
C2620 208  7.000000  862.962400  1.000000  1.000000  1  1
C2621 209  12.000000  863.876800  1.000000  1.000000  1  1
C2622 210  6.000000  865.413000  1.000000  1.000000  1  1
C2623 211  7.000000  865.592800  1.000000  1.000000  1  1
C2624 212  7.000000  864.245600  1.000000  1.000000  1  1
C2625 217  12.000000  860.972100  1.000000  1.000000  1  1
C2626 218  12.000000  862.374100  1.000000  1.000000  1  1
C2627 219  12.000000  862.255300  1.000000  1.000000  1  1
C2628 220  12.000000  862.544800  1.000000  1.000000  1  1
C2629 221  15.000000  862.386300  1.000000  1.000000  1  1
C2630 222  14.000000  862.718600  1.000000  1.000000  1  1
C2631 223  13.000000  862.621000  1.000000  1.000000  1  1
C2632 224  14.000000  864.239500  1.000000  1.000000  1  1
C2633 229  1.000000  862.355800  1.000000  1.000000  1  1
C2634 230  9.000000  862.517400  1.000000  1.000000  1  1
C2635 231  4.000000  862.291800  1.000000  1.000000  1  1
C2636 232  9.000000  862.160800  1.000000  1.000000  1  1
C2637 233  4.000000  863.023400  1.000000  1.000000  1  1
C2638 234  5.000000  864.428500  1.000000  1.000000  1  1
C2639 235  6.000000  865.208800  1.000000  1.000000  1  1
C2640 236  6.000000  864.355300  1.000000  1.000000  1  1
C2641 237  8.000000  863.998700  1.000000  1.000000  1  1
C2642 238  7.000000  863.739600  1.000000  1.000000  1  1
C2643 239  8.000000  862.889200  1.000000  1.000000  1  1
C2644 241  8.000000  862.523500  1.000000  1.000000  1  1
C2645 242  9.000000  862.535700  1.000000  1.000000  1  1
C2646 243  14.000000  863.053800  1.000000  1.000000  1  1
C2647 245  16.000000  865.202700  1.000000  1.000000  1  1
C2648 246  15.000000  864.340100  1.000000  1.000000  1  1
C2649 247  12.000000  865.342900  1.000000  1.000000  1  1
C2650 248  12.000000  864.852200  1.000000  1.000000  1  1
C2651 249  15.000000  864.626600  1.000000  1.000000  1  1
D16 1  227  122  -55  0.0  0.250000  0.250000  0.000000  1.000000  1  1
  1
D161 186  30.000000  839.478000  1.000000  1.000000  1  1
D162 188  2.000000  839.532900  1.000000  1.000000  1  1
D163 189  1.000000  839.392700  1.000000  1.000000  1  1
D164 190  6.000000  838.816600  1.000000  1.000000  1  1
D165 191  3.000000  838.508800  1.000000  1.000000  1  1
D166 192  6.000000  838.161300  1.000000  1.000000  1  1
D167 193  6.000000  838.277100  1.000000  1.000000  1  1
D168 194  3.000000  838.261900  1.000000  1.000000  1  1
D169 195  8.000000  838.770900  1.000000  1.000000  1  1
D1610 196  9.000000  839.109200  1.000000  1.000000  1  1
D1611 198  9.000000  839.450600  1.000000  1.000000  1  1
D1612 199  4.000000  839.307400  1.000000  1.000000  1  1
D1613 200  9.000000  838.429500  1.000000  1.000000  1  1
D1614 201  4.000000  838.868400  1.000000  1.000000  1  1
D1615 202  6.000000  838.222300  1.000000  1.000000  1  1
D1616 203  4.000000  838.066800  1.000000  1.000000  1  1
D1617 205  4.000000  837.728500  1.000000  1.000000  1  1
D1618 206  5.000000  838.106400  1.000000  1.000000  1  1
D1619 207  6.000000  838.103400  1.000000  1.000000  1  1
D1620 208  7.000000  838.627700  1.000000  1.000000  1  1
D1621 209  11.000000  838.889800  1.000000  1.000000  1  1
D1622 210  6.000000  839.130600  1.000000  1.000000  1  1
D1623 211  7.000000  839.066600  1.000000  1.000000  1  1
D1624 212  7.000000  839.030000  1.000000  1.000000  1  1
D1625 213  10.000000  838.871500  1.000000  1.000000  1  1
D1626 214  9.000000  838.511800  1.000000  1.000000  1  1
D1627 215  10.000000  838.091200  1.000000  1.000000  1  1
D1628 216  10.000000  837.914400  1.000000  1.000000  1  1
D1629 217  12.000000  838.106400  1.000000  1.000000  1  1
D1630 218  12.000000  838.051600  1.000000  1.000000  1  1
D1631 219  11.000000  838.033300  1.000000  1.000000  1  1
D1632 220  12.000000  838.499600  1.000000  1.000000  1  1
D1633 221  15.000000  838.530100  1.000000  1.000000  1  1
D1634 222  14.000000  838.749600  1.000000  1.000000  1  1
D1635 223  10.000000  838.972100  1.000000  1.000000  1  1
D1636 224  10.000000  838.761800  1.000000  1.000000  1  1
D1637 225  22.000000  838.755700  1.000000  1.000000  1  1
D1638 226  14.000000  838.197900  1.000000  1.000000  1  1
D1639 227  13.000000  836.850700  1.000000  1.000000  1  1
D1640 228  14.000000  837.948000  1.000000  1.000000  1  1
D1641 229  1.000000  837.746800  1.000000  1.000000  1  1
D1642 230  9.000000  837.868700  1.000000  1.000000  1  1
D1643 231  1.000000  838.088200  1.000000  1.000000  1  1
D1644 232  7.000000  838.264900  1.000000  1.000000  1  1
D1645 233  4.000000  838.338100  1.000000  1.000000  1  1
D1646 234  5.000000  838.838000  1.000000  1.000000  1  1
D1647 235  6.000000  838.972100  1.000000  1.000000  1  1
D1648 236  5.000000  839.054400  1.000000  1.000000  1  1
D1649 237  7.000000  839.243400  1.000000  1.000000  1  1
D1650 238  7.000000  838.633800  1.000000  1.000000  1  1
D1651 239  8.000000  838.197900  1.000000  1.000000  1  1
D1652 240  9.000000  837.896100  1.000000  1.000000  1  1
D1653 241  7.000000  838.191800  1.000000  1.000000  1  1
D1654 242  9.000000  838.389900  1.000000  1.000000  1  1
D1655 243  13.000000  838.743500  1.000000  1.000000  1  1
D31 1  213  102  -63  0.0  0.250000  -0.250000  0.000000  1.000000  1  1
  1
D311 186  27.000000  842.822200  1.000000  1.000000  1  1
D312 188  2.000000  842.947200  1.000000  1.000000  1  1
D313 189  1.000000  842.672900  1.000000  1.000000  1  1
D314 191  3.000000  842.468700  1.000000  1.000000  1  1
D315 192  6.000000  842.218700  1.000000  1.000000  1  1
D316 193  6.000000  842.148600  1.000000  1.000000  1  1
D317 194  3.000000  842.145600  1.000000  1.000000  1  1
D318 195  8.000000  842.590600  1.000000  1.000000  1  1
D319 196  9.000000  843.416600  1.000000  1.000000  1  1
D3110 197  6.000000  843.096600  1.000000  1.000000  1  1
D3111 198  9.000000  843.471500  1.000000  1.000000  1  1
D3112 199  4.000000  843.029500  1.000000  1.000000  1  1
D3113 200  8.000000  842.834400  1.000000  1.000000  1  1
D3114 201  4.000000  842.535700  1.000000  1.000000  1  1
D3115 202  6.000000  842.261400  1.000000  1.000000  1  1
D3116 203  4.000000  842.133400  1.000000  1.000000  1  1
D3117 204  5.000000  842.002300  1.000000  1.000000  1  1
D3118 206  5.000000  842.209600  1.000000  1.000000  1  1
D3119 207  6.000000  842.493100  1.000000  1.000000  1  1
D3120 208  7.000000  843.163600  1.000000  1.000000  1  1
D3121 209  12.000000  843.441000  1.000000  1.000000  1  1
D3122 210  7.000000  843.124000  1.000000  1.000000  1  1
D3123 211  7.000000  842.968500  1.000000  1.000000  1  1
D3124 212  7.000000  843.139200  1.000000  1.000000  1  1
D3125 213  10.000000  842.770400  1.000000  1.000000  1  1
D3126 214  9.000000  842.538800  1.000000  1.000000  1  1
D3127 215  10.000000  842.249200  1.000000  1.000000  1  1
D3128 216  10.000000  841.996200  1.000000  1.000000  1  1
D3129 217  12.000000  841.990100  1.000000  1.000000  1  1
D3130 218  12.000000  842.060200  1.000000  1.000000  1  1
D3131 219  12.000000  842.166900  1.000000  1.000000  1  1
D3132 220  12.000000  842.523500  1.000000  1.000000  1  1
D3133 221  15.000000  842.709500  1.000000  1.000000  1  1
D3134 222  14.000000  843.041700  1.000000  1.000000  1  1
D3135 223  13.000000  842.834400  1.000000  1.000000  1  1
D3136 224  14.000000  842.733800  1.000000  1.000000  1  1
D3137 225  22.000000  842.517400  1.000000  1.000000  1  1
D3138 226  15.000000  842.160800  1.000000  1.000000  1  1
D3139 227  14.000000  842.017600  1.000000  1.000000  1  1
D3140 228  14.000000  842.002300  1.000000  1.000000  1  1
D3141 229  1.000000  841.529900  1.000000  1.000000  1  1
D3142 230  9.000000  841.953600  1.000000  1.000000  1  1
D3143 231  4.000000  842.057200  1.000000  1.000000  1  1
D3144 232  9.000000  842.447300  1.000000  1.000000  1  1
D3145 233  4.000000  843.279400  1.000000  1.000000  1  1
D3146 234  5.000000  843.328200  1.000000  1.000000  1  1
D3147 235  6.000000  843.373900  1.000000  1.000000  1  1
D3148 236  6.000000  843.111800  1.000000  1.000000  1  1
D3149 237  8.000000  842.883200  1.000000  1.000000  1  1
D3150 238  7.000000  842.508300  1.000000  1.000000  1  1
D3151 239  8.000000  842.258400  1.000000  1.000000  1  1
D3152 240  9.000000  842.121200  1.000000  1.000000  1  1
D3153 241  8.000000  842.362000  1.000000  1.000000  1  1
D3154 242  9.000000  842.544900  1.000000  1.000000  1  1
D3155 243  14.000000  843.355600  1.000000  1.000000  1  1
D3156 245  16.000000  843.380000  1.000000  1.000000  1  1
D3157 246  15.000000  843.587300  1.000000  1.000000  1  1
D3158 247  12.000000  843.154500  1.000000  1.000000  1  1
D3159 248  12.000000  842.877100  1.000000  1.000000  1  1
D3160 249  15.000000  842.886200  1.000000  1.000000  1  1
D3161 250  12.000000  842.746000  1.000000  1.000000  1  1
D3162 251  13.000000  842.426000  1.000000  1.000000  1  1
D3163 252  13.000000  842.243100  1.000000  1.000000  1  1
D40 1  308  119  -65  0.0  -0.250000  -0.250000  0.000000  1.000000  1  1
  1
D401 187  18.000000  864.262200  1.000000  1.000000  1  1
D402 188  2.000000  864.631000  1.000000  1.000000  1  1
D403 189  0.000000  864.628000  1.000000  1.000000  1  1
D404 190  6.000000  864.655400  1.000000  1.000000  1  1
D405 191  2.000000  864.326200  1.000000  1.000000  1  1
D406 192  5.000000  864.085400  1.000000  1.000000  1  1
D407 193  5.000000  863.981800  1.000000  1.000000  1  1
D408 194  2.000000  863.960500  1.000000  1.000000  1  1
D409 195  7.000000  864.183000  1.000000  1.000000  1  1
D4010 196  8.000000  864.628000  1.000000  1.000000  1  1
D4011 197  5.000000  864.442100  1.000000  1.000000  1  1
D4012 198  8.000000  864.408500  1.000000  1.000000  1  1
D4013 199  3.000000  864.393300  1.000000  1.000000  1  1
D4014 200  8.000000  864.670700  1.000000  1.000000  1  1
D4015 201  4.000000  864.658500  1.000000  1.000000  1  1
D4016 202  5.000000  864.301900  1.000000  1.000000  1  1
D4017 203  4.000000  864.055000  1.000000  1.000000  1  1
D4018 204  5.000000  863.896500  1.000000  1.000000  1  1
D4019 205  4.000000  863.908700  1.000000  1.000000  1  1
D4020 206  5.000000  863.978800  1.000000  1.000000  1  1
D4021 207  6.000000  864.082400  1.000000  1.000000  1  1
D4022 208  7.000000  864.286600  1.000000  1.000000  1  1
D4023 209  11.000000  864.359800  1.000000  1.000000  1  1
D4024 210  6.000000  864.259200  1.000000  1.000000  1  1
D4025 211  7.000000  864.353700  1.000000  1.000000  1  1
D4026 212  7.000000  864.673700  1.000000  1.000000  1  1
D4027 213  10.000000  864.798700  1.000000  1.000000  1  1
D4028 214  9.000000  864.469500  1.000000  1.000000  1  1
D4029 215  10.000000  864.137300  1.000000  1.000000  1  1
D4030 216  10.000000  863.960500  1.000000  1.000000  1  1
D4031 217  12.000000  863.923900  1.000000  1.000000  1  1
D4032 218  11.000000  864.234800  1.000000  1.000000  1  1
D4033 219  11.000000  864.024500  1.000000  1.000000  1  1
D4034 220  12.000000  864.164700  1.000000  1.000000  1  1
D4035 221  15.000000  864.195200  1.000000  1.000000  1  1
D4036 222  14.000000  864.286600  1.000000  1.000000  1  1
D4037 223  10.000000  864.542600  1.000000  1.000000  1  1
D4038 224  14.000000  864.573100  1.000000  1.000000  1  1
D4039 225  22.000000  864.442100  1.000000  1.000000  1  1
D4040 226  14.000000  864.189100  1.000000  1.000000  1  1
D4041 227  13.000000  864.006200  1.000000  1.000000  1  1
D4042 228  14.000000  863.820300  1.000000  1.000000  1  1
D4043 229  2.000000  863.829400  1.000000  1.000000  1  1
D4044 230  9.000000  864.097600  1.000000  1.000000  1  1
D4045 231  4.000000  864.155600  1.000000  1.000000  1  1
D4046 232  7.000000  864.274400  1.000000  1.000000  1  1
D4047 233  4.000000  864.344500  1.000000  1.000000  1  1
D4048 234  5.000000  864.225700  1.000000  1.000000  1  1
D4049 235  6.000000  864.219600  1.000000  1.000000  1  1
D4050 236  6.000000  864.408500  1.000000  1.000000  1  1
D4051 237  8.000000  864.932800  1.000000  1.000000  1  1
D4052 238  7.000000  864.771200  1.000000  1.000000  1  1
D4053 239  8.000000  864.539600  1.000000  1.000000  1  1
D4054 240  7.000000  864.082400  1.000000  1.000000  1  1
D4055 241  7.000000  864.329300  1.000000  1.000000  1  1
D4056 242  9.000000  864.250000  1.000000  1.000000  1  1
D4057 243  14.000000  864.372000  1.000000  1.000000  1  1
D4058 245  15.000000  864.311000  1.000000  1.000000  1  1
D4059 246  14.000000  864.259200  1.000000  1.000000  1  1
D4060 247  12.000000  864.429900  1.000000  1.000000  1  1
D4061 248  12.000000  864.929700  1.000000  1.000000  1  1
D4062 249  15.000000  865.149200  1.000000  1.000000  1  1
D4063 250  11.000000  864.658500  1.000000  1.000000  1  1
D4064 251  12.000000  864.570100  1.000000  1.000000  1  1
D4065 252  13.000000  864.201300  1.000000  1.000000  1  1
E3 1  340  143  -63  0.0  -0.250000  0.250000  0.000000  1.000000  1  1
  1
E31 186  27.000000  878.905600  1.000000  1.000000  1  1
E32 188  2.000000  879.131100  1.000000  1.000000  1  1
E33 189  0.000000  879.231700  1.000000  1.000000  1  1
E34 190  7.000000  878.829400  1.000000  1.000000  1  1
E35 191  2.000000  878.820200  1.000000  1.000000  1  1
E36 192  5.000000  878.561200  1.000000  1.000000  1  1
E37 193  5.000000  878.640400  1.000000  1.000000  1  1
E38 194  2.000000  878.421000  1.000000  1.000000  1  1
E39 195  7.000000  878.436200  1.000000  1.000000  1  1
E310 196  8.000000  878.722700  1.000000  1.000000  1  1
E311 197  5.000000  878.393500  1.000000  1.000000  1  1
E312 198  8.000000  879.097600  1.000000  1.000000  1  1
E313 199  3.000000  878.567300  1.000000  1.000000  1  1
E314 200  8.000000  879.173800  1.000000  1.000000  1  1
E315 201  4.000000  878.710500  1.000000  1.000000  1  1
E316 202  5.000000  878.737900  1.000000  1.000000  1  1
E317 203  4.000000  878.545900  1.000000  1.000000  1  1
E318 204  5.000000  878.536800  1.000000  1.000000  1  1
E319 205  4.000000  878.625200  1.000000  1.000000  1  1
E320 206  5.000000  878.533700  1.000000  1.000000  1  1
E321 207  6.000000  878.558100  1.000000  1.000000  1  1
E322 208  7.000000  878.844600  1.000000  1.000000  1  1
E323 209  11.000000  878.710500  1.000000  1.000000  1  1
E324 210  6.000000  878.658700  1.000000  1.000000  1  1
E325 211  7.000000  879.503000  1.000000  1.000000  1  1
E326 212  7.000000  879.396300  1.000000  1.000000  1  1
E327 213  10.000000  879.198200  1.000000  1.000000  1  1
E328 214  9.000000  879.094600  1.000000  1.000000  1  1
E329 215  10.000000  878.844600  1.000000  1.000000  1  1
E330 216  10.000000  878.582500  1.000000  1.000000  1  1
E331 217  12.000000  879.085400  1.000000  1.000000  1  1
E332 218  12.000000  878.454500  1.000000  1.000000  1  1
E333 219  11.000000  878.454500  1.000000  1.000000  1  1
E334 220  12.000000  879.073200  1.000000  1.000000  1  1
E335 221  15.000000  878.753200  1.000000  1.000000  1  1
E336 222  14.000000  878.600800  1.000000  1.000000  1  1
E337 223  10.000000  879.411600  1.000000  1.000000  1  1
E338 224  14.000000  879.457300  1.000000  1.000000  1  1
E339 225  22.000000  879.496900  1.000000  1.000000  1  1
E340 226  14.000000  878.719700  1.000000  1.000000  1  1
E341 227  13.000000  878.808000  1.000000  1.000000  1  1
E342 228  14.000000  878.466700  1.000000  1.000000  1  1
E343 229  20.000000  878.271600  1.000000  1.000000  1  1
E344 230  9.000000  878.652600  1.000000  1.000000  1  1
E345 231  4.000000  878.719700  1.000000  1.000000  1  1
E346 232  8.000000  878.896400  1.000000  1.000000  1  1
E347 233  4.000000  878.808000  1.000000  1.000000  1  1
E348 234  5.000000  878.744000  1.000000  1.000000  1  1
E349 235  6.000000  878.667800  1.000000  1.000000  1  1
E350 236  6.000000  878.844600  1.000000  1.000000  1  1
E351 238  7.000000  879.542600  1.000000  1.000000  1  1
E352 239  8.000000  879.329300  1.000000  1.000000  1  1
E353 240  7.000000  879.149400  1.000000  1.000000  1  1
E354 241  7.000000  878.536800  1.000000  1.000000  1  1
E355 242  9.000000  878.561200  1.000000  1.000000  1  1
E356 243  14.000000  878.835500  1.000000  1.000000  1  1
E357 245  15.000000  878.552000  1.000000  1.000000  1  1
E358 246  14.000000  879.435900  1.000000  1.000000  1  1
E359 247  12.000000  878.664800  1.000000  1.000000  1  1
E360 248  16.000000  879.926700  1.000000  1.000000  1  1
E361 249  15.000000  880.039400  1.000000  1.000000  1  1
E362 251  12.000000  879.655400  1.000000  1.000000  1  1
E363 252  13.000000  879.097600  1.000000  1.000000  1  1
E71 1  199  88  -23  0.0  -0.250000  -0.250000  0.000000  1.000000  1  1
  1
E711 212  7.000000  849.404600  1.000000  1.000000  1  1
E712 223  10.000000  847.600200  1.000000  1.000000  1  1
E713 224  10.000000  847.557500  1.000000  1.000000  1  1
E714 225  22.000000  846.484600  1.000000  1.000000  1  1
E715 226  15.000000  847.322800  1.000000  1.000000  1  1
E716 226  15.000000  847.322800  1.000000  1.000000  1  1
E717 227  14.000000  846.691900  1.000000  1.000000  1  1